37
 energy: -59.871729584674 gnorm: 0.000222827561 xtb: 6.7.1 (edcfbbe)
N           -0.12577995564900       -0.22433216113593        1.24239944941034
C            0.31074095038337        0.89076053880080        0.38311132339964
C           -0.64958776729716        1.11368692651776       -0.78767589726897
C           -1.16010638061175       -0.17352800738858       -1.45578679457913
C           -0.05587363545051       -1.20278493410405       -1.77933141781009
O            0.33330510914867       -1.32094106589393       -2.94947013680627
O            0.36451500626375       -1.89073573819115       -0.80435224295040
H            0.47776474722983       -0.29946010053365        2.10963565744935
H           -1.09897440398898       -0.10883974725484        1.52396417550267
H            0.37634285873237        1.80401793118109        0.97396599493049
H            1.30503271349110        0.65539593138684        0.00081750051120
H           -0.13349336719237        1.71483464074258       -1.53664456594883
H           -1.52348828758499        1.67767926561433       -0.45432883116164
H           -1.89141084932941       -0.67539820174302       -0.81870553316050
H           -1.64760072341482        0.08294675663028       -2.39767681066571
H           -0.01795361112444       -1.09075772274824        0.65985582206582
O            1.35880209171533       -0.43695294365179        3.47364763743971
H            2.23257329269097       -0.75897380075394        3.14603764066995
H            1.05279718492688       -1.09632727667823        4.10247483759370
O            3.62668794033539       -1.39300795709337        2.43551596461428
H            3.37964764025822       -1.74650564005457        1.55922143616725
H            4.25122782710566       -0.67360098184208        2.25344797014404
O            4.85468088922791        1.53248077631524       -2.70889776925952
H            4.33952394644056        1.22107976427376       -3.45792206941677
H            4.37472020793610        1.22077222428645       -1.91405614956933
O            4.26920052472944       -4.50197361996029       -1.02319460392273
H            3.97775625317091       -5.32799286621434       -0.62374810355299
H            5.22905210806559       -4.53815617614441       -1.08935621743616
O            2.97916925795103       -2.14778350276902       -0.14668708467763
H            3.39746984668011       -2.92641414489573       -0.54776474853024
H            2.04236802217876       -2.16461421730449       -0.43238016792707
O            3.55633735020116        0.53298203157529       -0.47485333952657
H            4.12813633924538        0.69660693529416        0.29654696489008
H            3.42140806476448       -0.43370517847966       -0.48056953345090
O            5.29355298928905        0.81860754290823        1.72959823705311
H            6.21212429533587        0.71056592420905        1.46374527099783
H            5.23193552397873        1.64494179511252        2.21989713470892
