64
 energy: -431.722293909886 gnorm: 0.000318509095 xtb: 6.7.1 (edcfbbe)
N        0.1279681322     -0.9955740635      2.4139504179                 
C       -0.5899227223     -0.8238842301      1.1418111390                 
C        0.3047973247     -0.1518033538      0.1120074940                 
C       -0.4858582933      0.3088236950     -1.1101259693                 
C       -1.1145676845     -0.8216962697     -1.8879664780                 
O       -2.0738972500     -1.4505424714     -1.3737201466                 
O       -0.6634366790     -1.0868464893     -3.0345675866                 
H        0.9620644862     -1.5813740583      2.2493650897                 
H        0.4140292801     -0.0661344623      2.7639827062                 
H       -1.4573967877     -0.1912088051      1.3092984791                 
H       -0.9315410054     -1.7875501213      0.7704320370                 
H        1.0984879627     -0.8205603984     -0.2032318135                 
H        0.7454857821      0.7386384526      0.5496281997                 
H       -1.2976434950      0.9475208025     -0.7791208609                 
H        0.1681975166      0.8606309491     -1.7763422351                 
H       -0.4981294140     -1.4416008753      3.1026257453                 
O       -3.4429038870     -3.4266940364     -2.3921134661                 
H       -2.8274969149     -2.7206942613     -2.0513532944                 
H       -3.8512631306     -3.0191660700     -3.1766313715                 
O        1.0337215476     -3.1593970636     -1.0838651990                 
H        1.4577707984     -2.5474007016     -1.7194089609                 
H        1.5038949382     -2.9981738315     -0.2372497873                 
O        1.1026996473     -1.8379379092     -5.2272594312                 
H        0.9615280848     -1.1968995137     -5.9348786898                 
H        0.2794438873     -2.3488567943     -5.1237290797                 
O        2.1750099448      0.1354214249      4.6727144687                 
H        2.5514394430      0.1099955862      5.5621489973                 
H        2.3763404891     -0.7470165033      4.2950320600                 
O       -2.0507373252     -0.6681449025     -5.3081224895                 
H       -1.5651119211     -1.1995580774     -5.9700465766                 
H       -1.5428064573     -0.7448319040     -4.4747181025                 
O        0.5603664877      1.1805249338     -4.1679267743                 
H       -0.1876681498      1.8024277680     -4.1654138318                 
H        0.2216474286      0.3461650372     -3.7928284804                 
O       -4.2926540177     -0.1587054914     -0.5599296171                 
H       -4.9020505895     -0.8229617414     -0.1754998493                 
H       -3.4739286124     -0.6369743302     -0.8162504138                 
O        0.1291510220      1.7601342331      3.2109937692                 
H        0.3950610374      2.0122731732      4.1138239287                 
H       -0.8106042524      1.5534866243      3.2532644575                 
O        0.5653071016     -4.0286772968      2.8496525998                 
H        1.1413728013     -4.5558787868      2.2729806687                 
H       -0.1829434569     -3.7617211642      2.2961436029                 
O        2.3623942330     -2.5006476711      4.2018950995                 
H        1.6410310766     -2.9906467766      3.7563942571                 
H        2.2951332531     -2.7154554447      5.1518684856                 
O        2.8474016397      0.2331579537      1.8943953517                 
H        3.4317415120      0.7824571567      1.3428094653                 
H        2.2552984364      0.8511541749      2.3410130529                 
O        2.3011257966     -2.3957328259      1.2466835042                 
H        2.7101058582     -1.5146815538      1.3242005515                 
H        2.9331788555     -3.0202738520      1.6133755564                 
O       -0.9849351555     -3.4200420951     -4.3335178485                 
H       -0.4095865714     -4.0971031152     -3.9153687088                 
H       -0.9992481585     -2.6625268921     -3.7071364039                 
O        2.3189549524     -1.6044938821     -2.8352617140                 
H        2.5894202751     -0.6824052360     -2.6460919738                 
H        1.8265417294     -1.5806316832     -3.6752300246                 
O       -2.1277945962     -2.0077766250      3.7348926354                 
H       -2.4891454256     -2.0804821059      4.6260329405                 
H       -2.7619707660     -1.4499884420      3.2388822736                 
O       -0.3617904796     -0.1958886940      5.3094036582                 
H       -0.4387394081     -1.1272770547      5.5801236438                 
H        0.5673044772     -0.0649988684      4.9863897414                 
