37
 energy: -59.869226039671 gnorm: 0.001658569905 xtb: 6.7.1 (edcfbbe)
N           -1.49536842093882        2.35388437931306        0.50008637766497
C           -1.02267300344061        0.96441741462999        0.66693194879847
C           -0.19114117111641        0.52599991822456       -0.53498681085784
C            0.28658734432073       -0.91738044405720       -0.36723039154956
C            1.19115935170648       -1.31918951159740       -1.55173053548472
O            2.41933626024821       -1.17566674694598       -1.42730209371739
O            0.62083659743131       -1.75327033230458       -2.58862494065055
H           -0.70249103697593        2.97701176677797        0.32759126484238
H           -2.15128497386152        2.44090473737372       -0.33609527704080
H           -1.88254813030468        0.30341339453240        0.77028645009617
H           -0.41399131042544        0.88688343030955        1.56891618261648
H            0.69018933418747        1.16157515639885       -0.64618379290784
H           -0.77763468989776        0.59824451501095       -1.45139971345617
H           -0.56158502652476       -1.60242916604109       -0.33100878802188
H            0.88069107628017       -1.02135562567430        0.54230522033406
H           -2.00036816285753        2.67275961207128        1.33046568089046
O           -1.36177711356666       -0.28806282636433       -3.88961700438609
H           -0.56764425643209       -0.73437011522587       -3.54875637076002
H           -1.56466107821400       -0.72936772381573       -4.74343725871961
O           -1.92453154885460       -2.77133714025856       -2.50099484406074
H           -0.96439797487326       -2.58330528404985       -2.49834995386122
H           -2.31249542002280       -1.93670701497206       -2.80634941026624
O            0.48949155971108       -2.30372009642244       -7.53572047325772
H            1.12847854812054       -1.59268578756723       -7.65592537978691
H            0.95410299744848       -3.03314214591103       -7.11409286263711
O           -3.13082036327703        2.74476882371249       -1.57640430759738
H           -3.90958494470304        2.21293211582595       -1.76158627051467
H           -2.56778318542264        2.70831146303852       -2.37748013007272
O           -1.91531996387788       -1.71772416500399       -6.14775986868007
H           -2.18311034035618       -2.58267891296165       -5.77983169950401
H           -1.14902997821531       -1.90577961510799       -6.71411408137240
O           -2.59150958265081       -4.05872161395175       -4.82013134337026
H           -2.30530597596932       -3.73373200864282       -3.93921995909260
H           -3.49480357064276       -4.36939331760205       -4.70950151068375
O           -1.54625706247173        2.41738624488629       -3.73792882234925
H           -1.71028057023488        2.75267000539535       -4.62349869563072
H           -1.44302321351646        1.44711261689682       -3.82780953522591
