37
 energy: -59.885250256643 gnorm: 0.000288144750 xtb: 6.7.1 (edcfbbe)
N           -0.26848459466600       -1.75880245149969        2.43001695038732
C           -0.53908904999389       -1.35502327307584        1.03905414006766
C            0.61698100486586       -0.54213307094456        0.46657401728487
C            0.30606443787414       -0.07378712465732       -0.95520724519228
C            0.12168253343170       -1.23777700553391       -1.93772160063757
O            1.09119871933617       -1.99794738691930       -2.15071401801825
O           -1.00039374994910       -1.35957932765679       -2.49055055869040
H            0.58654679189888       -2.36321043312055        2.46238450092587
H           -0.12247626594068       -0.93872234495663        3.01926852826063
H           -1.45862324515378       -0.76962755726657        0.99771726430688
H           -0.68637339649707       -2.25101192427041        0.43504933699698
H            1.52451316474034       -1.14517601294740        0.44436988858831
H            0.79768500751385        0.34014121725258        1.08263746139314
H           -0.60206915343549        0.53041037469106       -0.97251094820059
H            1.13634760680164        0.52386243513528       -1.33788336709094
H           -1.08829255510328       -2.30918090780558        2.80133974748350
O           -2.46203617562764       -3.16335053364074        3.15417751286347
H           -2.92799214281326       -3.14355420936850        2.29493594172171
H           -2.33186293786252       -4.09077680039867        3.37280558088365
O            1.97885895801120       -3.32544041844583        2.32989378476982
H            2.24132230559215       -3.35580077382013        1.39284842765885
H            2.78021074878021       -3.15879526950077        2.83409882996219
O           -1.47019640473679       -2.91907133642122       -4.70291814088218
H           -2.16314337745072       -3.53106509992295       -4.43200991079028
H           -1.30911723062119       -2.33830256721255       -3.92895458387645
O           -3.18574471111731       -0.86884499220320       -0.92186750741555
H           -2.41952687626327       -1.03210535059421       -1.50706726388262
H           -3.87326745564815       -0.49406540035677       -1.48078178698546
O            1.26276321416825       -3.61289858424507       -4.44720434647042
H            1.28079556094472       -3.05980853474839       -3.64367739592753
H            0.36478657096800       -3.48716553246724       -4.79722851527308
O           -3.57803601833199       -3.12929687152740        0.65352670944310
H           -4.46959242351290       -3.43004769663323        0.45781724505979
H           -3.43502157747004       -2.32312619079585        0.12391858634001
O            2.78141416311901       -3.16841000238066       -0.31635939944895
H            3.26752570695510       -3.85807450932533       -0.77687246563227
H            2.20843584737461       -2.75462653246068       -0.98823639999786
