34
 energy: -56.709198807549 gnorm: 0.000339336098 xtb: 6.7.1 (edcfbbe)
H            1.17255771145045       -1.08209564903097       -0.85100578213144
C            0.13423074772659       -0.93687460313459       -1.15614121212717
H            0.73448575458146        0.44746023155381       -2.61505713566334
H           -0.16643058414038       -1.75998938706622       -1.80382200504372
N            0.01182151438398        0.34015026160251       -1.88177421117938
H           -0.68312839116018       -1.85534887838466        0.61982240324343
C           -0.75969245680507       -0.91350803859963        0.07842179422288
O            0.01118416890678        1.30839816725480        0.59009971041095
C           -0.43525039158602        0.23612908271714        1.05849521046806
H            0.10289946848784        1.07010582039824       -1.14212137405415
O           -0.66756459424855        0.04409231902371        2.27441784697896
H           -0.93101003552731        0.41808920311569       -2.33309061989392
H           -1.80399074762822       -0.77883964362990       -0.21476972902721
O           -1.65177610852779       -2.22217078609416        3.33618370032917
H           -1.45242000560516       -2.16213713659973        4.27549093765954
H           -1.32461054348786       -1.38019417979224        2.94156743474443
O           -0.66425847778807        0.48220734143052       -5.45362656097305
H           -0.60279684030286       -0.34284286175551       -5.96266705709853
H            0.20643775071455        0.59668186432397       -5.03634325632812
O            3.29596381193544       -1.96835971143472       -0.33716229016061
H            3.68072893800244       -1.69440629691379        0.49984460934031
H            3.31479766995720       -2.93064488525696       -0.35227634184193
O           -0.48154038301297       -1.98437034461774       -6.81116020476855
H           -0.82379248782448       -2.10564057214815       -7.70123621464230
H           -0.70451820864647       -2.77318248822014       -6.30654791323455
O            1.80333118502469        0.69278827171936       -4.03051069634463
H            2.45226712714900       -0.00027655652398       -4.18785917237120
H            2.27642451637179        1.53047658773989       -4.00712953985136
O           -0.80064026908657       -4.22836666112813        1.60688517868597
H           -1.07788810026961       -3.56115334771671        2.26136495205166
H           -1.56993371838052       -4.78928944495244        1.46657297158802
O           -2.31103327256626        0.47954171448147       -3.31455856374297
H           -2.83017248234558        1.28724947910100       -3.31337504852793
H           -1.82433626573992        0.46456712853176       -4.17192482074029
