34
 energy: -56.707653253803 gnorm: 0.000270288278 xtb: 6.7.1 (edcfbbe)
H            1.41375715701118       -0.69552810697205       -0.33777460720819
C            0.35547094170641       -0.87968961780752       -0.53140149610760
H            0.63272818163176       -0.35813063471619       -2.53856759157407
H            0.21042647996158       -1.95042995094125       -0.67957052971055
N           -0.03630970268147       -0.14885672611728       -1.74769424537774
H           -0.19817168150835       -0.92042437731087        1.56856635831094
C           -0.46398475893361       -0.38766987155654        0.65633844051249
O           -0.11645524224654        1.89196193216473       -0.04124391325101
C           -0.28238112961554        1.12952977495443        0.94322426813529
H           -0.02082393066436        0.85328432560039       -1.46326824352503
O           -0.33914338498189        1.49313299737226        2.13280176916748
H           -1.00526665321190       -0.39326308611163       -2.03724271173620
H           -1.52889861577555       -0.54574971750635        0.47289237715612
O           -2.35083436033865       -0.08790733201382       -5.42979207426785
H           -3.12793395120797       -0.26133833871439       -5.97109862037380
H           -2.10051838564036        0.83132450909789       -5.57461888721213
O            0.30941740400941        4.59507852820238       -4.64338811965458
H            0.00042961978593        4.81988745614499       -3.76048647047215
H            1.12984958124591        4.10271502074184       -4.53436624468986
O            0.01176982346930       -4.32072800683631       -4.34653048983091
H           -0.86804372580702       -4.54377105498323       -4.02849382597988
H           -0.07947957173815       -3.48987798542172       -4.84924925533734
O           -2.62104705033094       -0.61387915760317       -2.67658687580436
H           -3.31258227069620       -0.01618090935746       -2.38251712123029
H           -2.53161366746713       -0.48653795105001       -3.63897900828527
O           -0.16382525025711       -1.83753118692132       -5.64808942766622
H            0.11362766774308       -1.74533256302169       -6.56407919590281
H           -0.94739212301535       -1.26965131319423       -5.53170689908835
O            1.80530094438148       -3.44198938104290       -2.46861124145511
H            1.20074246505174       -3.86938767067388       -3.11183172694766
H            2.57154351179656       -4.01454353924043       -2.39069274008829
O            1.62350581711217       -0.99509525927930       -3.68360840374803
H            1.03807385529766       -1.26207355912093       -4.41818895491722
H            1.84125900590586       -1.83236124680195       -3.22802529175048
