16
Coordinates from ORCA-job 07_Aminobutyric-acid_zwitterion E -363.026270170812
  N       0.187400      1.065900      0.443300
  C       1.078500      1.919000     -0.344000
  C       0.502800      2.310200     -1.721100
  C       0.346100      1.161500     -2.734000
  C      -0.736200      0.183100     -2.380200
  O      -0.442100     -1.122300     -2.226500
  O      -1.889900      0.561200     -2.251700
  H       0.586500      0.960600      1.404100
  H      -0.760200      1.501600      0.519700
  H       1.245000      2.862300      0.222700
  H       2.065700      1.421900     -0.469600
  H       1.224700      3.028700     -2.167500
  H      -0.463500      2.845800     -1.595900
  H       1.319000      0.636500     -2.850300
  H       0.076400      1.603700     -3.717500
  H       0.120700      0.112300      0.028100
16
Coordinates from ORCA-job 07_Aminobutyric-acid_zwitterion E -363.038799679776
  N       0.159348      1.022187      0.357526
  C       1.074031      1.928977     -0.382774
  C       0.518377      2.338449     -1.743831
  C       0.361105      1.169660     -2.721345
  C      -0.720464      0.199125     -2.298361
  O      -0.353611     -1.012956     -1.995449
  O      -1.867463      0.623708     -2.100361
  H       0.515718      0.860039      1.301254
  H      -0.773270      1.430510      0.438969
  H       1.226115      2.825408      0.220428
  H       2.037566      1.430629     -0.497613
  H       1.227178      3.053230     -2.171447
  H      -0.436056      2.859143     -1.617878
  H       1.317905      0.650806     -2.824043
  H       0.087078      1.565890     -3.704862
  H       0.087343      0.107196     -0.100615
16
Coordinates from ORCA-job 07_Aminobutyric-acid_zwitterion E -363.040318737927
  N       0.161615      0.995207      0.307959
  C       1.082932      1.948286     -0.405718
  C       0.527211      2.362256     -1.755742
  C       0.369299      1.167885     -2.695623
  C      -0.715481      0.220544     -2.176674
  O      -0.332705     -0.933714     -1.864008
  O      -1.899244      0.639544     -2.147416
  H       0.495288      0.795388      1.242324
  H      -0.771288      1.377585      0.394541
  H       1.222507      2.809282      0.231568
  H       2.032599      1.443554     -0.513788
  H       1.221866      3.080312     -2.178317
  H      -0.423707      2.870234     -1.626760
  H       1.317148      0.648997     -2.781132
  H       0.083727      1.524796     -3.683026
  H       0.089132      0.101844     -0.188587
16
Coordinates from ORCA-job 07_Aminobutyric-acid_zwitterion E -363.043092855576
  N       0.209291      0.982805      0.351139
  C       1.082254      1.958717     -0.397819
  C       0.506224      2.346723     -1.755991
  C       0.366205      1.157955     -2.717830
  C      -0.769484      0.217759     -2.276524
  O      -0.420647     -0.884934     -1.794510
  O      -1.940145      0.676435     -2.308836
  H       0.571559      0.807307      1.287564
  H      -0.742376      1.334890      0.452993
  H       1.198589      2.827740      0.242278
  H       2.049596      1.475215     -0.504127
  H       1.191422      3.083392     -2.174432
  H      -0.455043      2.844737     -1.627812
  H       1.310433      0.618296     -2.758044
  H       0.147723      1.529864     -3.720342
  H       0.155299      0.075099     -0.138108
16
Coordinates from ORCA-job 07_Aminobutyric-acid_zwitterion E -363.044686055511
  N       0.229619      0.996638      0.383227
  C       1.091233      1.956032     -0.388309
  C       0.497234      2.340095     -1.740685
  C       0.352912      1.163091     -2.720403
  C      -0.785330      0.209310     -2.319886
  O      -0.458536     -0.884462     -1.749984
  O      -1.957910      0.604114     -2.513158
  H       0.631616      0.803284      1.302276
  H      -0.708449      1.375307      0.531760
  H       1.223712      2.831744      0.246911
  H       2.058405      1.466672     -0.509376
  H       1.179416      3.083430     -2.162882
  H      -0.467789      2.835927     -1.600441
  H       1.300160      0.619193     -2.760405
  H       0.145825      1.552459     -3.720427
  H       0.128784      0.099168     -0.118619
16
Coordinates from ORCA-job 07_Aminobutyric-acid_zwitterion E -363.046391318137
  N       0.233843      0.979924      0.353953
  C       1.095804      1.953867     -0.394460
  C       0.495557      2.349907     -1.736203
  C       0.348997      1.173622     -2.714469
  C      -0.782519      0.217514     -2.295974
  O      -0.479165     -0.762814     -1.522847
  O      -1.939600      0.515804     -2.658799
  H       0.659277      0.729897      1.250123
  H      -0.689737      1.376875      0.552312
  H       1.231474      2.816047      0.262704
  H       2.062271      1.459872     -0.526827
  H       1.174826      3.099701     -2.158347
  H      -0.473437      2.841710     -1.585681
  H       1.300067      0.628161     -2.744973
  H       0.137820      1.555678     -3.716787
  H       0.085422      0.116234     -0.204125
16
Coordinates from ORCA-job 07_Aminobutyric-acid_zwitterion E -363.048900403038
  N       0.259630      1.006000      0.408012
  C       1.113376      1.945718     -0.393057
  C       0.467676      2.335719     -1.712928
  C       0.340848      1.178212     -2.719418
  C      -0.799518      0.205819     -2.359606
  O      -0.562359     -0.673277     -1.463250
  O      -1.887926      0.365593     -2.946068
  H       0.741730      0.702647      1.253721
  H      -0.610374      1.455182      0.699934
  H       1.301437      2.805851      0.248997
  H       2.056801      1.422623     -0.557316
  H       1.113061      3.111015     -2.135475
  H      -0.510562      2.796848     -1.535065
  H       1.293423      0.636714     -2.737191
  H       0.154040      1.583707     -3.713273
  H      -0.010383      0.173629     -0.178418
16
Coordinates from ORCA-job 07_Aminobutyric-acid_zwitterion E -363.050591869987
  N       0.320338      1.012476      0.451079
  C       1.132394      1.958653     -0.377932
  C       0.439068      2.318591     -1.681314
  C       0.320785      1.169431     -2.704070
  C      -0.858397      0.213430     -2.440056
  O      -0.805375     -0.505093     -1.385479
  O      -1.776182      0.181015     -3.276987
  H       0.855393      0.658986      1.240350
  H      -0.506993      1.473231      0.827433
  H       1.328230      2.830273      0.242410
  H       2.077192      1.452254     -0.570196
  H       1.048187      3.110511     -2.120869
  H      -0.542527      2.758922     -1.480293
  H       1.259049      0.607051     -2.685645
  H       0.195130      1.594283     -3.696623
  H      -0.025392      0.217987     -0.182207
16
Coordinates from ORCA-job 07_Aminobutyric-acid_zwitterion E -363.051551407014
  N       0.305190      1.039040      0.475763
  C       1.146959      1.934797     -0.373149
  C       0.430283      2.315113     -1.658404
  C       0.308622      1.191193     -2.713023
  C      -0.823379      0.179117     -2.472961
  O      -0.836847     -0.422688     -1.341971
  O      -1.645706     -0.021835     -3.378321
  H       0.856587      0.576032      1.195504
  H      -0.427253      1.570654      0.944576
  H       1.407145      2.805779      0.225828
  H       2.061674      1.384996     -0.594197
  H       1.017170      3.124041     -2.098921
  H      -0.552001      2.739320     -1.427946
  H       1.260984      0.652965     -2.741249
  H       0.145366      1.644760     -3.688144
  H      -0.193896      0.338714     -0.193784
16
Coordinates from ORCA-job 07_Aminobutyric-acid_zwitterion E -363.052149151417
  N       0.318370      1.030860      0.479692
  C       1.154131      1.935257     -0.368670
  C       0.429125      2.316905     -1.651544
  C       0.295693      1.198792     -2.708510
  C      -0.836174      0.186311     -2.483442
  O      -0.947067     -0.308264     -1.304951
  O      -1.555884     -0.133779     -3.441314
  H       0.876461      0.546601      1.178490
  H      -0.399037      1.559529      0.972787
  H       1.411866      2.811392      0.223813
  H       2.072036      1.393450     -0.597082
  H       1.007687      3.128402     -2.098660
  H      -0.551064      2.740079     -1.411048
  H       1.241556      0.648360     -2.741939
  H       0.141479      1.655460     -3.684624
  H      -0.198279      0.342646     -0.203398
16
Coordinates from ORCA-job 07_Aminobutyric-acid_zwitterion E -363.052389965420
  N       0.318625      1.036472      0.485461
  C       1.160987      1.931071     -0.367094
  C       0.429480      2.319832     -1.645555
  C       0.285227      1.207747     -2.702574
  C      -0.830774      0.175760     -2.488224
  O      -0.996265     -0.279977     -1.301752
  O      -1.494358     -0.195944     -3.469856
  H       0.875104      0.526895      1.167090
  H      -0.377592      1.574842      0.998052
  H       1.428738      2.810115      0.216513
  H       2.073519      1.382562     -0.600928
  H       1.003696      3.132512     -2.096113
  H      -0.548835      2.741920     -1.395653
  H       1.230218      0.656507     -2.759475
  H       0.125043      1.668582     -3.677364
  H      -0.221914      0.363103     -0.202927
16
Coordinates from ORCA-job 07_Aminobutyric-acid_zwitterion E -363.052276067609
  N       0.291139      1.041587      0.474101
  C       1.165581      1.917946     -0.367544
  C       0.447560      2.335026     -1.647908
  C       0.270728      1.232034     -2.696421
  C      -0.797453      0.158171     -2.453947
  O      -0.954703     -0.291944     -1.267760
  O      -1.447122     -0.243733     -3.439233
  H       0.826318      0.506277      1.153501
  H      -0.394729      1.592554      0.987755
  H       1.444774      2.795871      0.212275
  H       2.068312      1.352189     -0.596738
  H       1.034616      3.138172     -2.098335
  H      -0.522598      2.772103     -1.391307
  H       1.214566      0.688044     -2.825119
  H       0.062672      1.691009     -3.665543
  H      -0.248762      0.366695     -0.218177
16
Coordinates from ORCA-job 07_Aminobutyric-acid_zwitterion E -363.052605199674
  N       0.302095      1.049862      0.489974
  C       1.168008      1.914451     -0.368502
  C       0.436667      2.327535     -1.641012
  C       0.266828      1.231644     -2.702539
  C      -0.804405      0.155147     -2.479346
  O      -1.013290     -0.260402     -1.287103
  O      -1.393961     -0.291265     -3.480470
  H       0.846225      0.503401      1.153701
  H      -0.359728      1.611178      1.023048
  H       1.462832      2.789721      0.208243
  H       2.062546      1.339390     -0.606821
  H       1.016830      3.137572     -2.088135
  H      -0.535462      2.757525     -1.377747
  H       1.215670      0.693582     -2.823051
  H       0.062847      1.698205     -3.666631
  H      -0.272802      0.394455     -0.194009
16
Coordinates from ORCA-job 07_Aminobutyric-acid_zwitterion E -363.052636273127
  N       0.303248      1.047720      0.486805
  C       1.166318      1.916806     -0.368646
  C       0.436574      2.326334     -1.642058
  C       0.269403      1.228387     -2.704092
  C      -0.808327      0.157508     -2.477610
  O      -1.005371     -0.264561     -1.285656
  O      -1.411081     -0.277274     -3.474750
  H       0.848597      0.511115      1.157462
  H      -0.368665      1.604497      1.011695
  H       1.457413      2.789344      0.213747
  H       2.062544      1.343668     -0.605221
  H       1.020123      3.134987     -2.087454
  H      -0.535199      2.758825     -1.382489
  H       1.219701      0.692626     -2.817386
  H       0.065074      1.694275     -3.667918
  H      -0.259451      0.387744     -0.196829
16
Coordinates from ORCA-job 07_Aminobutyric-acid_zwitterion E -363.052660338224
  N       0.300461      1.050382      0.489131
  C       1.167439      1.912533     -0.369622
  C       0.437114      2.326884     -1.641021
  C       0.265809      1.232959     -2.705609
  C      -0.803464      0.152999     -2.477554
  O      -1.011770     -0.257739     -1.284200
  O      -1.388212     -0.298467     -3.478183
  H       0.843723      0.510759      1.159017
  H      -0.366735      1.611914      1.014933
  H       1.466573      2.782325      0.212675
  H       2.058631      1.332341     -0.608167
  H       1.023089      3.134913     -2.084677
  H      -0.532876      2.761803     -1.379282
  H       1.218135      0.703820     -2.831226
  H       0.049394      1.701555     -3.665622
  H      -0.266411      0.393021     -0.190993
16
Coordinates from ORCA-job 07_Aminobutyric-acid_zwitterion E -363.052682304680
  N       0.294958      1.055877      0.494089
  C       1.170221      1.903756     -0.371246
  C       0.437999      2.327688     -1.638285
  C       0.258655      1.241347     -2.707814
  C      -0.793482      0.143547     -2.478474
  O      -1.024138     -0.246785     -1.283375
  O      -1.343742     -0.338568     -3.484724
  H       0.833284      0.510825      1.163673
  H      -0.363562      1.627446      1.020055
  H       1.486360      2.768473      0.209435
  H       2.050940      1.309655     -0.614432
  H       1.027441      3.134502     -2.079803
  H      -0.528578      2.766940     -1.371638
  H       1.214852      0.726030     -2.857719
  H       0.018729      1.716047     -3.659484
  H      -0.279037      0.405219     -0.180658
16
Coordinates from ORCA-job 07_Aminobutyric-acid_zwitterion E -363.052685046042
  N       0.293169      1.056874      0.495469
  C       1.170647      1.901032     -0.371882
  C       0.438119      2.327699     -1.637885
  C       0.257708      1.243037     -2.708849
  C      -0.790546      0.141740     -2.478577
  O      -1.021834     -0.246515     -1.283163
  O      -1.338390     -0.343340     -3.485012
  H       0.830042      0.513845      1.167875
  H      -0.365587      1.631163      1.018263
  H       1.491364      2.764631      0.207973
  H       2.048655      1.303391     -0.616176
  H       1.027814      3.134550     -2.079011
  H      -0.527950      2.767407     -1.370077
  H       1.214998      0.731377     -2.863868
  H       0.012542      1.719708     -3.658325
  H      -0.279849      0.405402     -0.177156
16
Coordinates from ORCA-job 07_Aminobutyric-acid_zwitterion E -363.052686277603
  N       0.292283      1.057691      0.496024
  C       1.171572      1.899117     -0.372064
  C       0.438140      2.327692     -1.636948
  C       0.256516      1.244288     -2.709040
  C      -0.788840      0.140528     -2.478724
  O      -1.023305     -0.244419     -1.282938
  O      -1.331632     -0.349689     -3.485597
  H       0.827703      0.515087      1.169907
  H      -0.366122      1.634087      1.016968
  H       1.495744      2.761990      0.206943
  H       2.047458      1.298866     -0.617445
  H       1.027009      3.134946     -2.078295
  H      -0.527606      2.767177     -1.367514
  H       1.214345      0.734760     -2.867877
  H       0.008350      1.722625     -3.656931
  H      -0.280713      0.407256     -0.176869
16
Coordinates from ORCA-job 07_Aminobutyric-acid_zwitterion E -363.052686668972
  N       0.292273      1.057723      0.496040
  C       1.171695      1.898812     -0.372119
  C       0.438007      2.327528     -1.636851
  C       0.256719      1.244170     -2.709249
  C      -0.788757      0.140794     -2.478799
  O      -1.021532     -0.245421     -1.283010
  O      -1.333664     -0.347883     -3.485297
  H       0.827474      0.516673      1.171352
  H      -0.367155      1.634420      1.015417
  H       1.496238      2.761704      0.206694
  H       2.047373      1.298244     -0.617527
  H       1.026101      3.135282     -2.078272
  H      -0.528001      2.766280     -1.367066
  H       1.214579      0.734496     -2.867573
  H       0.009331      1.722832     -3.657187
  H      -0.279780      0.406346     -0.176952
16
Coordinates from ORCA-job 07_Aminobutyric-acid_zwitterion E -363.052686819454
  N       0.292155      1.058027      0.496233
  C       1.171904      1.898342     -0.372212
  C       0.437952      2.327456     -1.636674
  C       0.256517      1.244419     -2.709446
  C      -0.788505      0.140727     -2.478953
  O      -1.020798     -0.246069     -1.283227
  O      -1.333453     -0.347941     -3.485417
  H       0.827042      0.517977      1.172590
  H      -0.367726      1.635237      1.014483
  H       1.497325      2.761014      0.206455
  H       2.047034      1.297019     -0.617780
  H       1.025618      3.135557     -2.078015
  H      -0.528108      2.765832     -1.366431
  H       1.214436      0.734954     -2.868145
  H       0.009039      1.723400     -3.657192
  H      -0.279533      0.406049     -0.176668
16
Coordinates from ORCA-job 07_Aminobutyric-acid_zwitterion E -363.052686887065
  N       0.292036      1.058175      0.496214
  C       1.171966      1.898239     -0.372222
  C       0.438048      2.327480     -1.636650
  C       0.256400      1.244540     -2.709475
  C      -0.788445      0.140699     -2.478908
  O      -1.019783     -0.247085     -1.283297
  O      -1.333991     -0.347427     -3.485278
  H       0.826725      0.518760      1.173237
  H      -0.368364      1.635459      1.013736
  H       1.497667      2.760767      0.206497
  H       2.046908      1.296628     -0.617768
  H       1.025755      3.135590     -2.077918
  H      -0.527959      2.765929     -1.366329
  H       1.214298      0.735100     -2.868389
  H       0.008759      1.723527     -3.657160
  H      -0.279121      0.405620     -0.176690
16
Coordinates from ORCA-job 07_Aminobutyric-acid_zwitterion E -363.052686837188
  N       0.291830      1.058322      0.496073
  C       1.171966      1.898278     -0.372174
  C       0.438288      2.327539     -1.636713
  C       0.256341      1.244603     -2.709455
  C      -0.788487      0.140725     -2.478724
  O      -1.017147     -0.249511     -1.283371
  O      -1.336274     -0.345437     -3.484779
  H       0.826211      0.520163      1.174341
  H      -0.369807      1.635455      1.012194
  H       1.497758      2.760670      0.206698
  H       2.046840      1.296473     -0.617527
  H       1.026259      3.135499     -2.077901
  H      -0.527609      2.766308     -1.366502
  H       1.214147      0.734996     -2.868428
  H       0.008589      1.723459     -3.657159
  H      -0.278005      0.404457     -0.176973
16
Coordinates from ORCA-job 07_Aminobutyric-acid_zwitterion E -363.052686793962
  N       0.291839      1.058258      0.495993
  C       1.171890      1.898441     -0.372119
  C       0.438343      2.327542     -1.636783
  C       0.256446      1.244489     -2.709404
  C      -0.788612      0.140799     -2.478645
  O      -1.016322     -0.250203     -1.283372
  O      -1.337486     -0.344422     -3.484575
  H       0.826229      0.520350      1.174453
  H      -0.370173      1.635177      1.011874
  H       1.497406      2.760912      0.206790
  H       2.046942      1.296845     -0.617352
  H       1.026449      3.135386     -2.078012
  H      -0.527544      2.766450     -1.366751
  H       1.214204      0.734692     -2.868096
  H       0.008876      1.723243     -3.657208
  H      -0.277585      0.404039     -0.177193
16
Coordinates from ORCA-job 07_Aminobutyric-acid_zwitterion E -363.052686857653
  N       0.291920      1.058153      0.496063
  C       1.171827      1.898496     -0.372105
  C       0.438260      2.327525     -1.636788
  C       0.256502      1.244436     -2.709380
  C      -0.788608      0.140755     -2.478704
  O      -1.017307     -0.249224     -1.283308
  O      -1.336745     -0.345132     -3.484758
  H       0.826471      0.519628      1.173900
  H      -0.369592      1.635037      1.012609
  H       1.497192      2.761080      0.206721
  H       2.046998      1.297101     -0.617396
  H       1.026419      3.135298     -2.078092
  H      -0.527634      2.766474     -1.366835
  H       1.214296      0.734687     -2.868011
  H       0.008908      1.723224     -3.657178
  H      -0.278008      0.404461     -0.177139
