16
Coordinates from ORCA-job 07_Aminobutyric-acid_zwitterion E -363.052686857653
  N           0.29192023275235      1.05815309086779      0.49606324033963
  C           1.17182677891297      1.89849578729169     -0.37210536818269
  C           0.43825967275843      2.32752538426813     -1.63678779348729
  C           0.25650199284643      1.24443648144588     -2.70938024651051
  C          -0.78860776271654      0.14075536698181     -2.47870402261436
  O          -1.01730683700252     -0.24922438060792     -1.28330753739433
  O          -1.33674478390146     -0.34513214109035     -3.48475750517216
  H           0.82647148738439      0.51962820864258      1.17390036088095
  H          -0.36959164093369      1.63503743332463      1.01260892612845
  H           1.49719232584949      2.76108013622365      0.20672097754108
  H           2.04699825485301      1.29710070809633     -0.61739617208136
  H           1.02641903661731      3.13529805646632     -2.07809203278926
  H          -0.52763429423442      2.76647360224313     -1.36683517908551
  H           1.21429590044150      0.73468652381565     -2.86801130440161
  H           0.00890772191351      1.72322426570580     -3.65717750166884
  H          -0.27800808554078      0.40446147632485     -0.17713884150215
