34
 energy: -56.701542668741 gnorm: 0.001921076187 xtb: 6.7.1 (edcfbbe)
C           -0.52080738420686        0.48909968772889        1.29129729806134
C           -0.25621134421628        1.08126330952955        2.69357265956988
O           -1.22107777799437        1.23415172666834        3.45715319378862
O            0.94406573253614        1.35390979966144        2.97858164759181
C            0.24277765677047        1.21315772191702        0.17935067237947
N            1.22644086419207        0.32871585906767       -0.47518511604521
H           -0.21225951676673       -0.55609410943740        1.35681906883564
H           -1.59854361530907        0.51579719004917        1.13922373883806
H           -0.45848058779310        1.59254450552017       -0.56295222964554
H            0.78251486534120        2.05638810268777        0.61526184163727
H            0.76692696700178       -0.49354252603081       -0.86808869631479
H            1.92549767459801        0.01803247026686        0.26332865978930
H            1.73649422111432        0.83256107232472       -1.22966145218609
O            1.88029884639309       -4.86902316098330        0.60676635291332
H            1.29603445813080       -5.43063857111801        0.08819179210176
H            2.77237258661970       -4.98178487727515        0.26372623277524
O            1.57933108498085        2.10875987772876        5.46348594020949
H            1.26741641729690        1.85420574189203        4.55784944598118
H            2.51805092935929        2.30211043629838        5.36107069681771
O            2.64087103031195        1.66131230054005       -2.46161146840630
H            3.59430306687000        1.68874988584223       -2.33405521497823
H            2.37688504760501        2.48164263269934       -2.88699135765982
O            1.13039647915323       -2.56057325525312        2.01052703413983
H            1.37899785800362       -3.36154218476588        1.51423748376934
H            0.99719950548893       -2.84820883476878        2.91741076748113
O            2.69182813555050       -0.32019822233193        1.66469080886347
H            2.27974133412391       -1.18327642922890        1.86472497586984
H            2.21105926941675        0.32420150272493        2.22199360891018
O            0.37931109916763        4.48998412143466        6.39654380496142
H           -0.37709095590708        4.23237771480555        6.93103534660701
H            0.75545856973054        3.66049590134549        6.05020858136062
O            1.21677983484488       -0.26837367151016        6.93804417526938
H            1.34582687423718        0.56262442913819        6.44575657601831
H            0.31679277324397       -0.23770014723824        7.27351413074273
