34
 energy: -56.700248278017 gnorm: 0.000319560357 xtb: 6.7.1 (edcfbbe)
H            2.20314620847696        0.79601957466234       -1.36987289302622
C            1.15372494068289        0.49984115000780       -1.40971925753617
H            0.71537129754457        2.33778024578964       -2.30043101143534
H            1.00653128253482       -0.17630863445842       -2.25242488980968
N            0.32261176351292        1.70573081615707       -1.58085456936871
H            1.36158337377503       -1.10555073620062        0.03778654364652
C            0.77414391094686       -0.20054115879254       -0.10908940067489
O            0.65946267380250        1.90641496703304        1.03672636259869
C            0.97043668591740        0.68754300989675        1.14488956544553
H            0.32768747857979        2.16105895604326       -0.63846494174225
O            1.39458800671454        0.15111432916850        2.17904729078276
H           -0.65682233178131        1.45025812673019       -1.81831073387545
H           -0.28191620370710       -0.47791314189960       -0.13003612901041
O           -2.29674107178964        0.98041938003149       -2.19760913677635
H           -2.98045348585027        1.30831217862204       -1.60650474550994
H           -2.61494830831763        1.09520864681936       -3.09914477204301
O           -3.37399353497854        4.08376994225925        2.11810411882156
H           -3.76013405294367        4.00635438172987        2.99515546453316
H           -2.41767633964223        3.94102814818460        2.23991581884143
O           -1.17331393701289       -3.18623295867148        5.58174059421983
H           -1.41123242307183       -3.70430433406372        4.79055353464826
H           -0.35716952937119       -2.72632887741885        5.36334570107900
O           -0.63209543736150        3.73291016208198        2.61619431421830
H           -0.04388947058950        4.49442573334707        2.58331646993313
H           -0.16008839602145        3.01503602772023        2.14979505426488
O           -3.41579837938760       -1.92969759820092        6.77676489177525
H           -2.65506730586122       -2.44112898834026        6.45025700462353
H           -3.18846306404264       -1.00468225697170        6.64130783392234
O            1.60619068706578        3.29815139912215       -3.48299908874828
H            2.02028783127636        4.12938300263706       -3.23648740515344
H            1.43289862028872        3.32367874911998       -4.42882092984016
O           -2.06341921663396       -4.54724351144400        3.30778853555119
H           -2.66442748192621       -5.27545937512371        3.49646503947252
H           -2.50420979093476       -3.97151035560259        2.67406476624344
