34
 energy: -56.721227429282 gnorm: 0.000258651009 xtb: 6.7.1 (edcfbbe)
H            1.11395183184628       -0.50769011627761       -1.23241733183247
C            0.04238880986173       -0.42717637443479       -1.04062293485027
H            0.04533223609214        1.23398657683006       -2.34010371558383
H           -0.47865451016273       -1.20323062603229       -1.60085785379382
N           -0.42605460724455        0.90394825790433       -1.46502375272046
H            0.05717953292677       -1.60815603672603        0.78550124843672
C           -0.21621568018175       -0.60774869518678        0.45248578473910
O            0.74438737077945        1.55779505627936        0.86757045316721
C            0.56550691575707        0.39780264006348        1.33345555315924
H           -0.14303966841946        1.54074073016608       -0.69546534461746
O            0.95599089410549        0.01583771492325        2.44792652114897
H           -1.46282284069167        0.93826963014628       -1.57335053694216
H           -1.27584441696461       -0.45603296397858        0.67323779685883
O            3.34817337297338       -0.12603763175491       -1.73426524944541
H            4.13695390515827       -0.40075421476676       -1.26128637279680
H            3.16111942813596        0.79274277175414       -1.46056612678145
O           -2.94598498770990        3.64266207445919       -2.77753315220502
H           -2.81655891874797        4.40860590964274       -2.21289024762798
H           -2.21502653626111        3.66291430947612       -3.43155545399435
O           -0.84286963461498        3.63063057001704       -4.52692933216802
H           -0.96004055316050        3.29261834305294       -5.41913098971083
H           -0.09839766260970        3.12891644333914       -4.14121475717198
O            1.10625159556783        2.02524273249952       -3.40620354161330
H            1.68029513794000        2.34593243465612       -2.69035059873678
H            1.65246728306217        1.39026111082476       -3.91156409509494
O            2.73834744706586        0.08261024366457       -4.41622258677224
H            3.06194583820907       -0.09509629608764       -3.51227122343772
H            2.47175086044095       -0.76466541200094       -4.78319969553634
O           -3.14243062587751        1.09819001575111       -1.83513824906980
H           -3.60400632586728        0.59582592664843       -2.51264587304628
H           -3.17339763027672        2.03438086362750       -2.12452305182826
O            2.53428646845564        2.42049795830225       -0.99797181385718
H            1.93123334955953        2.16564549327929       -0.27165307822291
H            3.02524632086938        3.18437355999265       -0.68362039805018
