37
 energy: -59.867519489747 gnorm: 0.000199237597 xtb: 6.7.1 (edcfbbe)
N            0.27837456218474       -0.61716149912997        1.22638529351701
C            1.29655618490963        0.45683925489361        1.13990252599690
C            1.42509711467721        0.96835367227326       -0.29206595253733
C            1.75639150940491       -0.13357558379512       -1.30054285646950
C            0.52414556975176       -0.84279171265418       -1.87365145461910
O            0.70584995268468       -1.57108359195033       -2.89097171334528
O           -0.57919306519795       -0.71587624522464       -1.31012757784274
H           -0.31217533920207       -0.53237237986517        2.05178883385974
H           -0.30427042637970       -0.59104659141474        0.35131327254129
H            1.01078043099229        1.28872096744391        1.78254542059867
H            2.25600545639264        0.06306361143913        1.47582527217283
H            2.21033296480931        1.72294868575089       -0.32026439354294
H            0.49118455540095        1.44660477835452       -0.59613903072468
H            2.38502346134886       -0.90372036238336       -0.84802912764385
H            2.30779058126247        0.26777140268304       -2.15261721910717
H            0.74749971901971       -1.55067993297677        1.22140398769870
O           -4.22723093162630       -4.11276391259446       -0.23338730692408
H           -3.66291101278019       -3.82808418521483        0.49321136233120
H           -4.37614494766515       -5.05764149688292       -0.12796372774430
O           -5.66832009717844       -4.66855190048632       -4.67091724992566
H           -6.30340476929045       -4.00364766322314       -4.95345456259436
H           -5.05566803452352       -4.20171514802813       -4.06959122821665
O            1.12383233620136       -4.01419836950578       -1.47769792548016
H            0.34382881331887       -4.54469025235390       -1.67654994134919
H            1.07973807881913       -3.25909915089036       -2.08399289356169
O            1.71406224156973       -2.94256092841169        1.00454327064570
H            1.84461688741748       -3.65456156763106        1.63775491993625
H            1.54640902043930       -3.36289827315785        0.14172321397868
O            2.67902049393179       -0.65640444690066       -4.60237962936398
H            3.01006773955499       -1.39719053742601       -5.12015914522388
H            1.95366084284964       -1.01477122321922       -4.05555906800984
O           -4.01613620594473       -3.23450913014856       -2.95214244493354
H           -3.05353660269636       -3.27025971367931       -3.09873023635766
H           -4.14580171930691       -3.43854388552231       -2.01148503172732
O           -1.25621398776667       -3.39268132460829       -3.49849548026180
H           -0.67187316312614       -2.63369101855866       -3.29202853963485
H           -1.15667421445595       -3.55119434517393       -4.44188863623499
