37
 energy: -59.884887860831 gnorm: 0.000279435877 xtb: 6.7.1 (edcfbbe)
N           -0.33656397022021       -1.81901722784526        0.71043867936701
C            0.44274849152742       -0.58633726126144        0.49293278581357
C           -0.28400537907769        0.34139826790334       -0.48243629518410
C            0.08901135049736        0.10091837697560       -1.94592329998461
C           -0.21100349609134       -1.28814375883802       -2.53207431174469
O            0.33604399182352       -1.55537417071231       -3.62771326967819
O           -0.95774937970331       -2.08270954644405       -1.91474687651684
H            0.28085753505888       -2.62246512151966        0.98210213296392
H           -1.08628270032169       -1.67108626229721        1.41639335848631
H            0.58016787726673       -0.08650538737680        1.45062129373771
H            1.41988584538885       -0.85226787159000        0.08549768079200
H           -0.03614330380499        1.37813214165601       -0.25343653659961
H           -1.36086237826352        0.22226742584629       -0.35731534470208
H            1.15732986848945        0.26847563264870       -2.10115336604220
H           -0.43901524982895        0.81145772646516       -2.58869014538268
H           -0.76726619449581       -2.06873181466564       -0.20262398581376
O            1.35058786032670       -3.93642920563079        0.85509160731501
H            0.86881068296226       -4.40337311766187        0.14392015388765
H            2.08116270809754       -3.48748857004776        0.39270180246623
O           -1.65421967306501       -2.79839076279029        4.86442692905271
H           -0.82869115442544       -2.52338614479795        5.30270845805225
H           -1.58623504187044       -3.74972395392721        4.73828642013399
O            2.04763305405844       -3.59865558547503       -3.29533256194139
H            1.40969402063636       -2.88748092961352       -3.52101517114465
H            2.46760870766980       -3.85434144511989       -4.12216898697758
O            0.81748495547210       -2.00418345398627        5.89076074982821
H            1.58062752062843       -2.28237305346962        5.37298491061975
H            0.94466867238423       -1.07608105110013        6.10980069125952
O            3.04867214063187       -2.54396449086326       -0.87147722216295
H            2.72434638621693       -2.91286438443253       -1.71026478961222
H            4.00887793276468       -2.55652775477562       -0.92313637251437
O           -2.26514401095290       -1.32715190855374        2.63497466275831
H           -2.04802516689732       -1.79254963518720        3.46858740149391
H           -3.19618850307054       -1.49576302847615        2.47100615325781
O            0.09770490779739       -4.63877580363895       -1.50273124002908
H            0.83092016143411       -4.57488400254166       -2.13365027757510
H           -0.45073906909807       -3.85587486675195       -1.69507481772674
