37
 energy: -59.882693223690 gnorm: 0.000234188771 xtb: 6.7.1 (edcfbbe)
N            0.48620113055707       -0.18360916212185        2.03891177964728
C            1.30773260453796        0.00004225249040        0.82705576954807
C            0.53766754035717        0.69932951535445       -0.28993933203473
C           -0.39304530193224       -0.23833422545609       -1.06023624409051
C            0.39335721429278       -1.11789812890848       -2.06263291868283
O            1.09379067383859       -0.53380247802789       -2.91303458432789
O            0.26712561182640       -2.36581665461507       -1.97172979516447
H            1.04875764561932       -0.66181489870209        2.77861752429495
H            0.15280964803478        0.71730574976007        2.38247477637503
H            2.18322137344100        0.59755630304168        1.08413130664113
H            1.64876573754991       -0.97420561458054        0.47620480882393
H            1.24607345525202        1.10665936297710       -1.01545863054633
H           -0.03915636377415        1.53075178497522        0.11928369895517
H           -0.97911643657052       -0.87658992404500       -0.40281266093153
H           -1.07931744250857        0.35099631126678       -1.67365583895395
H           -0.35596564025224       -0.80131366869615        1.85504680776555
O           -1.98542074206994       -3.61292637089852        3.84912777555012
H           -2.87238702186246       -3.84130147465050        4.13981158131354
H           -1.70288508281801       -4.33602186458737        3.24823881244269
O            1.90557387146347       -1.59755754917284        3.92969571273135
H            2.58596815907261       -1.24453809447348        4.50908520713765
H            1.22246852553861       -2.00497200309011        4.50952206433677
O            2.35930405115409       -3.00640370524828        1.57918966562158
H            2.23892346149539       -2.60074539921999        2.46101248003467
H            3.06586616893999       -3.65051257740258        1.66274487694246
O           -1.58519332373980       -1.86869664219631        1.71870273772492
H           -1.80094525649957       -2.32979181857683        2.55059789325376
H           -1.12626879440410       -2.54853305131403        1.17919662687627
O           -0.04806179383449       -2.55786752201929        5.50567225850723
H           -0.54082493901666       -1.93067254731963        6.04283238567654
H           -0.70389285634604       -3.00776704001678        4.93967998066168
O           -1.22288184667923       -5.49033641665412        2.04361378621131
H           -0.57608956430783       -6.18642457001360        2.18899604657006
H           -0.86865575768875       -4.93098646833324        1.32793665183386
O           -0.03235449504407       -3.62818595684501        0.38828043349288
H            0.02245013896887       -3.27033717341148       -0.52216135527190
H            0.84154764739264       -3.43558027931238        0.79163891098939
