34
 energy: -56.713263271898 gnorm: 0.000640223369 xtb: 6.7.1 (edcfbbe)
H            1.57975682830203       -0.01165329467950       -0.60858126135933
C            0.51846730113531        0.19780315822746       -0.75426275290658
H            1.04733417400114        2.02251364100669       -1.64227057371877
H            0.16830200726443       -0.33787768552855       -1.63624744474780
N            0.34628891172635        1.64621579376954       -0.95447300839090
H           -0.21729537680295       -1.34473334351699        0.58693993015678
C           -0.26806966451124       -0.26300704926632        0.46880726569134
O            0.65309577847777        1.55225673162182        1.74407396689616
C            0.23334009530855        0.36450017883846        1.79212976058832
H            0.50128554493083        2.08160369051859       -0.02738255979603
O            0.17648095648279       -0.32749404821606        2.82219064918263
H           -0.61453482300679        1.87327738906016       -1.27358715614947
H           -1.31933218342371        0.01744516582729        0.36817491391500
O            3.87438227405350        1.03326229442774       -0.91250402806533
H            3.62060556075650        1.59149751830761       -0.15318794257159
H            4.83134448374899        0.95605070299939       -0.88404451290259
O            0.09083833777957        0.60996703608707       -6.60300072093310
H           -0.27179085706915       -0.17597082969530       -6.18234257309332
H            0.17685680853337        0.41568787723030       -7.54073225242178
O            1.96498593158297        4.54140402585115       -0.71084906108943
H            2.38121144468477        4.00639106389158       -0.01755131974675
H            2.11913113293822        4.04202119716604       -1.53005275817226
O            3.04954856888887        2.65983027598367        1.18679891804127
H            3.52746896184450        2.89569689129554        1.98646971300083
H            2.20363083595523        2.26675014701233        1.48143856341654
O           -2.20156683274784        2.32248168251701       -1.89342677558413
H           -2.55148125900533        3.11050913128838       -1.46830040119133
H           -2.23350565694975        2.47269880450062       -2.84451605859019
O            2.12936061621654        2.10224780280209       -5.35618080266864
H            2.14313113806578        2.92757569364070       -5.84914159351356
H            1.39835237843555        1.57598613981782       -5.72532457823971
O            2.30127655113958        2.50062878081151       -2.62837967200633
H            2.98688438579220        1.93941494871660       -2.22138663587508
H            2.28880164548579        2.30082448761189       -3.58250523716296
