37
 energy: -59.882410673085 gnorm: 0.001284867032 xtb: 6.7.1 (edcfbbe)
N            0.55295546115380       -1.64119507876612        2.68104167915531
C           -0.00952817351051       -1.42484271982165        1.33639930799188
C            0.93269171333147       -0.56707333465255        0.49860129208633
C            0.32917004806957       -0.20043287332924       -0.85773217380051
C            0.36808886394353       -1.31784904737774       -1.90709915260979
O            0.24218393375098       -2.51225820583683       -1.53174642836641
O            0.50355592371239       -0.97986347651003       -3.10302999220095
H            1.45390717577667       -2.16144522850260        2.60396431138510
H            0.72937859327444       -0.72950393001386        3.13967388473119
H           -0.97434107696002       -0.92316642412240        1.41317409112352
H           -0.15984162634351       -2.38429520282524        0.84442161268818
H            1.87269011613899       -1.09636243577349        0.33393843170547
H            1.14282203913331        0.35849510225012        1.03724616392549
H           -0.72517430779983        0.06467923231953       -0.73642540995268
H            0.84016880354761        0.65627480735379       -1.30096888587527
H           -0.09648270741504       -2.19816431136190        3.27033580415725
O            2.23045392433821       -3.93349752069509       -0.30134540946985
H            2.10889809853286       -4.84282932665208       -0.58939592360381
H            1.54499220538804       -3.41668470604459       -0.76352814342224
O           -1.13379281255638       -3.23469194329797        4.23136528599506
H           -2.05886123490372       -3.31914045671732        3.98347172368500
H           -0.78668500354806       -4.12127924291186        4.37049515546714
O            2.84418798506053       -3.12050913183344        2.26175050618372
H            2.65231107584663       -3.46987677931803        1.37183239287611
H            3.73951062916522       -2.77332422051897        2.23458980412304
O           -2.30519261022770       -3.17529699868267       -0.78232148520657
H           -1.38656139295680       -2.99621957831142       -1.05980783084368
H           -2.71579183946045       -3.64487822988172       -1.51458096153099
O            0.29150385038622       -2.79662322375032       -5.14180149811314
H            0.69310692740169       -2.32195574877272       -5.87686915617456
H            0.35290553026741       -2.18338623737013       -4.37696106718515
O           -3.03204824909545       -0.64177184875905        0.19084192975203
H           -3.99077890968671       -0.55993991765750        0.17392397783566
H           -2.83058442995133       -1.53688659093635       -0.13608048126047
O            1.00742904655473        0.87205585734902        3.86947900171629
H            0.26268365601770        1.34377403193251        4.25368744623445
H            1.76350277364189        0.99802793975360        4.45043719671480
