37
 energy: -59.874008320421 gnorm: 0.001565045407 xtb: 6.7.1 (edcfbbe)
N           -0.65864956572968       -0.45001993108475        1.46486702688655
C            0.10603873924326        0.74359827680243        1.07283311707362
C            0.02081253666902        1.00074319514636       -0.43447153459898
C           -0.01059140477889       -0.25373788713974       -1.31639861763718
C            1.07994420016306       -1.31797258675694       -1.09976896135278
O            1.61098322838180       -1.80550889134602       -2.12475015781602
O            1.32211668955429       -1.69888398638351        0.06993245372549
H           -0.78707407644428       -0.52074476385808        2.49577151726144
H           -1.59779387131677       -0.48692549739750        1.02504661499424
H           -0.26970156811593        1.61717377681253        1.60385535979883
H            1.14709945778487        0.57698120788893        1.35154551368535
H            0.87095730914461        1.61904506454118       -0.72646601953884
H           -0.88632756064436        1.56349158468786       -0.66005007060561
H           -0.95716839454353       -0.78230237866364       -1.18809747683813
H            0.04791003766719        0.04808074285450       -2.36377495610831
H           -0.10188273520435       -1.25453239774294        1.11965789287098
O           -3.16417154228910       -2.45042547024358        2.85922991657025
H           -3.24018303673721       -1.99482193374795        2.00556471477256
H           -2.53862039971844       -1.92043757376034        3.37943117395500
O            0.91136544646594       -1.61416371316532        5.56843805758550
H            1.22179105810055       -2.49588993822700        5.34212514173653
H            1.68823819762358       -1.05144818039434        5.64334721399645
O           -2.46780988172997       -2.78591783709520       -1.69255197953749
H           -2.44564191158960       -3.72583949982614       -1.48952345499366
H           -1.86675585294627       -2.65576314189607       -2.44496729917377
O           -1.27089839424999       -0.69559145554062        4.14730099255028
H           -0.54912117783718       -1.06368681215505        4.68908355659965
H           -1.66827215312519        0.00985850416436        4.66640880894908
O           -3.15008163264922       -1.02396878845389        0.34640259626605
H           -2.96758768679066       -1.66081785979893       -0.36659766473693
H           -3.92386283188985       -0.52282259293713        0.07416179079119
O           -0.48321611698045       -2.58666783572711       -3.68456748536814
H            0.33134820627729       -2.31975889715692       -3.21163442080026
H           -0.20086141959169       -3.16220089713419       -4.40242920191671
O            2.90846738263525       -3.73001056013019        1.10300408126410
H            2.43999763937040       -2.97699356805205        0.69128791998860
H            2.35004008567639       -4.49908147699390        0.94541883988797
