28
 energy: -44.602162828735 gnorm: 0.000443431193 xtb: 6.7.1 (edcfbbe)
N            0.97897333211165        0.48801515448089        0.49013201825957
C            0.91455092974711        1.57242162093304       -0.50630187979988
C            0.72645839177915        1.01597544816662       -1.91637973727190
C            1.68739826017570       -0.13497712196902       -2.25406300499360
C            3.12874172783681        0.14111629733481       -1.79431932501463
O            3.94241821179784        0.63366389161947       -2.60124547059165
O            3.40256320377112       -0.15724227340764       -0.60185018230922
H            1.00444511686875        0.86945713520828        1.45896552466683
H            0.16658048833035       -0.15249077066690        0.39168485112957
H            0.09028354691310        2.24273098652529       -0.26511958731685
H            1.84824697483072        2.13562330213825       -0.46367579204667
H            0.88543824972921        1.82264991602859       -2.63278471251797
H           -0.29263293747490        0.64751085721795       -2.03848929807062
H            1.36076515270508       -1.05906496052871       -1.77502982177154
H            1.69823549712527       -0.28422222302657       -3.33398787894963
H            1.86566315297695       -0.02734436614436        0.30869708771133
O           -1.23830904521623       -1.20763082527880        0.32447249208112
H           -2.06889422919251       -0.89477772553817        0.69728756276112
H           -1.15169661234623       -2.13641844673404        0.55651674894115
O            1.10407104808944        1.46649703192462        3.08317429334292
H            0.93987784879864        0.83302062546845        3.78895294634862
H            1.91137359901329        1.94000745812856        3.30300577475941
O            2.77439323974654        2.21002716688846       -4.52076377925912
H            3.23870252613171        1.64682407144061       -3.86745240954844
H            3.46125731626781        2.56597734696822       -5.09214394922618
O            5.70738296743573        0.68223566617919        0.66519201858297
H            4.90638213159478        0.33321155231955        0.22002537764942
H            6.28668510283543        0.97725325619567       -0.04297146730789
