13
Coordinates from ORCA-job 01_Alanine_zwitterion E -323.726367972121
  C      -0.514300      0.602200     -2.525100
  C      -1.055200     -0.102500     -1.306100
  O      -2.145800      0.394600     -0.692900
  O      -0.544000     -1.124900     -0.876800
  C       0.737600     -0.043200     -3.148800
  N       1.908700      0.051600     -2.273000
  H      -0.283400      1.657600     -2.265000
  H      -1.321400      0.603600     -3.288700
  H       0.965100      0.496000     -4.095200
  H       0.532800     -1.106400     -3.404500
  H       2.112400      1.053900     -2.054600
  H       1.763900     -0.477000     -1.384900
  H       2.734500     -0.357200     -2.767000
13
Coordinates from ORCA-job 01_Alanine_zwitterion E -323.739599252967
  C      -0.527662      0.606144     -2.552012
  C      -1.017393     -0.113070     -1.311931
  O      -2.055496      0.392719     -0.720435
  O      -0.372014     -1.070968     -0.859620
  C       0.710915     -0.025296     -3.176364
  N       1.866507      0.032998     -2.252799
  H      -0.322369      1.652503     -2.300977
  H      -1.330342      0.601695     -3.293860
  H       0.970210      0.508783     -4.091446
  H       0.521622     -1.066830     -3.431840
  H       2.084045      0.998977     -2.002172
  H       1.669343     -0.494749     -1.397161
  H       2.693535     -0.374604     -2.691983
13
Coordinates from ORCA-job 01_Alanine_zwitterion E -323.742524199438
  C      -0.525464      0.624793     -2.555265
  C      -0.962575     -0.082770     -1.267469
  O      -2.007308      0.352106     -0.762111
  O      -0.303101     -1.095120     -0.901817
  C       0.688856     -0.013509     -3.195068
  N       1.843761      0.034847     -2.247765
  H      -0.330734      1.669391     -2.324269
  H      -1.335363      0.607941     -3.277073
  H       0.971446      0.490978     -4.107909
  H       0.511813     -1.055105     -3.412597
  H       2.083438      0.985377     -1.994132
  H       1.584531     -0.472235     -1.400015
  H       2.671602     -0.398394     -2.637109
13
Coordinates from ORCA-job 01_Alanine_zwitterion E -323.743925852738
  C      -0.537809      0.611598     -2.576396
  C      -0.974438     -0.102895     -1.273514
  O      -1.987341      0.347940     -0.740977
  O      -0.179151     -0.976068     -0.806717
  C       0.691200      0.004809     -3.224423
  N       1.824140      0.008807     -2.243981
  H      -0.369319      1.664140     -2.339668
  H      -1.351607      0.589540     -3.300123
  H       1.006967      0.542358     -4.114086
  H       0.527834     -1.037308     -3.479363
  H       2.067316      0.952292     -1.940085
  H       1.505501     -0.531145     -1.425332
  H       2.667607     -0.425766     -2.617936
13
Coordinates from ORCA-job 01_Alanine_zwitterion E -323.745305775269
  C      -0.532750      0.608296     -2.568780
  C      -0.973596     -0.077102     -1.251478
  O      -2.065546      0.314179     -0.748992
  O      -0.195194     -0.937598     -0.750189
  C       0.705820      0.013495     -3.223076
  N       1.843330     -0.002904     -2.255170
  H      -0.376852      1.672533     -2.356661
  H      -1.357269      0.559145     -3.284763
  H       1.018240      0.575231     -4.104506
  H       0.534608     -1.024611     -3.510261
  H       2.097847      0.939685     -1.949369
  H       1.514907     -0.544362     -1.434486
  H       2.677356     -0.447687     -2.644869
13
Coordinates from ORCA-job 01_Alanine_zwitterion E -323.746046145272
  C      -0.531252      0.614272     -2.572690
  C      -0.947721     -0.069119     -1.247311
  O      -2.050125      0.274091     -0.765985
  O      -0.140993     -0.907174     -0.746254
  C       0.701788      0.022012     -3.230776
  N       1.830360     -0.009380     -2.250117
  H      -0.382325      1.678750     -2.366212
  H      -1.361060      0.553552     -3.278711
  H       1.023290      0.585955     -4.103810
  H       0.529221     -1.012540     -3.522050
  H       2.102365      0.926309     -1.949430
  H       1.461504     -0.529162     -1.430636
  H       2.655849     -0.479266     -2.618619
13
Coordinates from ORCA-job 01_Alanine_zwitterion E -323.746356363574
  C      -0.526511      0.614587     -2.565506
  C      -0.953238     -0.076483     -1.245585
  O      -2.061443      0.242718     -0.789570
  O      -0.137167     -0.897812     -0.724049
  C       0.702964      0.025947     -3.234414
  N       1.837493     -0.006842     -2.257874
  H      -0.376329      1.676446     -2.350407
  H      -1.358056      0.561476     -3.268331
  H       1.021609      0.590434     -4.106444
  H       0.531549     -1.008839     -3.523574
  H       2.131856      0.927569     -1.979347
  H       1.429351     -0.492548     -1.426074
  H       2.648820     -0.508352     -2.611424
13
Coordinates from ORCA-job 01_Alanine_zwitterion E -323.746714034430
  C      -0.526024      0.616577     -2.568210
  C      -0.936174     -0.071930     -1.243705
  O      -2.070755      0.183495     -0.809839
  O      -0.077561     -0.826058     -0.686050
  C       0.705204      0.037308     -3.243004
  N       1.830599     -0.021033     -2.255375
  H      -0.384844      1.680994     -2.356890
  H      -1.365276      0.551406     -3.261258
  H       1.029915      0.618471     -4.102580
  H       0.530397     -0.991256     -3.554659
  H       2.152039      0.907115     -1.983719
  H       1.375776     -0.481811     -1.423014
  H       2.627604     -0.554977     -2.594297
13
Coordinates from ORCA-job 01_Alanine_zwitterion E -323.746960815562
  C      -0.524377      0.620306     -2.562807
  C      -0.936843     -0.076130     -1.247182
  O      -2.099948      0.113490     -0.846550
  O      -0.053154     -0.770256     -0.649492
  C       0.706226      0.042037     -3.243947
  N       1.834382     -0.027625     -2.258293
  H      -0.376758      1.682180     -2.341260
  H      -1.366692      0.563689     -3.253048
  H       1.025039      0.632859     -4.100030
  H       0.526058     -0.982143     -3.568089
  H       2.191113      0.897034     -2.020315
  H       1.357176     -0.447550     -1.403834
  H       2.608678     -0.599591     -2.587753
13
Coordinates from ORCA-job 01_Alanine_zwitterion E -323.747091467718
  C      -0.523718      0.624306     -2.557234
  C      -0.941529     -0.080633     -1.249881
  O      -2.124546      0.048083     -0.884505
  O      -0.039345     -0.718636     -0.615003
  C       0.704958      0.042760     -3.243045
  N       1.836193     -0.031579     -2.261551
  H      -0.362240      1.681449     -2.322329
  H      -1.365062      0.584959     -3.249153
  H       1.017693      0.638763     -4.097875
  H       0.520714     -0.978341     -3.573801
  H       2.219432      0.889675     -2.053699
  H       1.355202     -0.423292     -1.388987
  H       2.593147     -0.629212     -2.585535
13
Coordinates from ORCA-job 01_Alanine_zwitterion E -323.747167596879
  C      -0.522715      0.629850     -2.552453
  C      -0.944052     -0.089354     -1.255052
  O      -2.140097     -0.020789     -0.920232
  O      -0.025636     -0.677515     -0.592423
  C       0.701388      0.041626     -3.242534
  N       1.833214     -0.031377     -2.263591
  H      -0.339282      1.679296     -2.298371
  H      -1.361583      0.616841     -3.247476
  H       1.010068      0.637365     -4.098989
  H       0.512548     -0.978749     -3.572492
  H       2.243768      0.885415     -2.091943
  H       1.351036     -0.385727     -1.373597
  H       2.572243     -0.658583     -2.573448
13
Coordinates from ORCA-job 01_Alanine_zwitterion E -323.747188892748
  C      -0.523370      0.631584     -2.551128
  C      -0.946962     -0.088976     -1.254269
  O      -2.146706     -0.042171     -0.932447
  O      -0.023491     -0.655780     -0.579887
  C       0.699406      0.039799     -3.241748
  N       1.832585     -0.032420     -2.265380
  H      -0.330938      1.678454     -2.292520
  H      -1.360018      0.628359     -3.248558
  H       1.008257      0.634460     -4.098623
  H       0.509100     -0.980399     -3.571265
  H       2.243442      0.884280     -2.094733
  H       1.357495     -0.390429     -1.375736
  H       2.572099     -0.658462     -2.576307
13
Coordinates from ORCA-job 01_Alanine_zwitterion E -323.747200984145
  C      -0.523028      0.632573     -2.550980
  C      -0.948077     -0.090835     -1.255509
  O      -2.146313     -0.036405     -0.929448
  O      -0.026316     -0.668740     -0.589434
  C       0.697840      0.037449     -3.240961
  N       1.831992     -0.029213     -2.265626
  H      -0.325699      1.677984     -2.289876
  H      -1.358640      0.634632     -3.249734
  H       1.007563      0.626654     -4.101256
  H       0.506976     -0.984896     -3.563669
  H       2.238198      0.889466     -2.093963
  H       1.361571     -0.387925     -1.377478
  H       2.574832     -0.652443     -2.574668
13
Coordinates from ORCA-job 01_Alanine_zwitterion E -323.747204131896
  C      -0.521930      0.633432     -2.549668
  C      -0.949109     -0.092259     -1.255940
  O      -2.148494     -0.041435     -0.933667
  O      -0.027989     -0.667598     -0.587259
  C       0.697148      0.036657     -3.240919
  N       1.832838     -0.028396     -2.267099
  H      -0.321699      1.677782     -2.286305
  H      -1.357476      0.639366     -3.248475
  H       1.006611      0.623378     -4.103023
  H       0.505268     -0.986526     -3.560516
  H       2.238314      0.890738     -2.096053
  H       1.361724     -0.384545     -1.378988
  H       2.575695     -0.652294     -2.574687
13
Coordinates from ORCA-job 01_Alanine_zwitterion E -323.747205470274
  C      -0.521728      0.634076     -2.549493
  C      -0.949139     -0.092214     -1.256470
  O      -2.149089     -0.042298     -0.934821
  O      -0.028267     -0.667228     -0.587750
  C       0.696689      0.036081     -3.240680
  N       1.833132     -0.028342     -2.267244
  H      -0.320338      1.678109     -2.285725
  H      -1.357442      0.641069     -3.248087
  H       1.006022      0.621450     -4.103784
  H       0.504206     -0.987419     -3.558917
  H       2.236764      0.891407     -2.094933
  H       1.363082     -0.385811     -1.379001
  H       2.577010     -0.650580     -2.575695
13
Coordinates from ORCA-job 01_Alanine_zwitterion E -323.747205868222
  C      -0.521504      0.634670     -2.549447
  C      -0.948686     -0.092159     -1.256764
  O      -2.149077     -0.044531     -0.936164
  O      -0.027371     -0.665464     -0.587286
  C       0.696428      0.035874     -3.240786
  N       1.832975     -0.028567     -2.267256
  H      -0.319254      1.678439     -2.285355
  H      -1.357516      0.642382     -3.247646
  H       1.005814      0.620478     -4.104377
  H       0.503525     -0.987751     -3.558337
  H       2.235840      0.891387     -2.094277
  H       1.362565     -0.386231     -1.378903
  H       2.577161     -0.650227     -2.576002
13
Coordinates from ORCA-job 01_Alanine_zwitterion E -323.747205911223
  C      -0.521442      0.634826     -2.549411
  C      -0.948716     -0.092210     -1.256850
  O      -2.149173     -0.044981     -0.936473
  O      -0.027372     -0.665334     -0.587181
  C       0.696394      0.035780     -3.240752
  N       1.832941     -0.028551     -2.267279
  H      -0.318880      1.678492     -2.285175
  H      -1.357467      0.642818     -3.247585
  H       1.005751      0.620142     -4.104518
  H       0.503404     -0.987911     -3.558057
  H       2.235634      0.891480     -2.094311
  H       1.362652     -0.386192     -1.378807
  H       2.577173     -0.650060     -2.576199
