37
 energy: -59.877949229427 gnorm: 0.001025862925 xtb: 6.7.1 (edcfbbe)
N           -1.21320263176059       -0.58077475537077        2.50353674232297
C           -1.21475603190305       -0.83883045519325        1.05385404289971
C           -0.60164218317080        0.34688280232060        0.31012675038282
C           -0.09358818770235       -0.04596049513122       -1.07259531175087
C            1.17957286217878       -0.92319863847425       -1.05957959448713
O            1.67267200412155       -1.25358587482851        0.05038456767248
O            1.64351536341325       -1.26142557159085       -2.16492333086549
H           -0.21843168268367       -0.39607081244876        2.78176720781315
H           -1.80371668448366        0.24523741374865        2.73777969147126
H           -2.23135280000417       -1.01783684804520        0.70447933694502
H           -0.61542847141458       -1.72768375147519        0.85423266375713
H            0.25002192000440        0.72197532382150        0.87842289879184
H           -1.32864947084610        1.15308171544921        0.21244403559115
H           -0.84551217938892       -0.60264462528577       -1.63709617379906
H            0.16163528236206        0.83746184987461       -1.66233668704507
H           -1.53639780876475       -1.40782883481048        3.03228850798248
O           -2.26464023530666        3.46190017365134        0.98927725196230
H           -2.91362534710444        3.94517549820733        0.46855999555727
H           -1.52502073374414        4.05631929272673        1.14382653877073
O            1.49791190471992       -0.50729374550348        2.81361549949504
H            1.70605252489317       -0.71963075474549        1.88896203483752
H            1.52047122632381       -1.36878329736421        3.28458171308464
O           -1.83842465002252       -2.87245938797668        4.03533988378963
H           -2.15949894443959       -2.67893717476064        4.92215857326523
H           -2.34041146399425       -3.62203742766186        3.70179399469271
O            2.80464445665182        5.03065955466860        2.84102810623253
H            3.59534059771038        5.31785779184274        3.30766700267516
H            2.71844405930362        4.08311932497463        2.99001671688477
O            1.31600303444364       -3.73603014832279        1.07926348850587
H            2.00537512279701       -4.32659240847047        0.76594153340686
H            1.50519242273570       -2.86518665257157        0.67407985443887
O            1.02811230955903       -3.03070147122372        3.74183091605478
H            1.13452651652489       -3.39456283358314        2.84295633034711
H            0.06973244295434       -3.03333192641054        3.90570104019323
O           -2.85691544176573        1.58684720889138        2.99085076312410
H           -3.81493213696257        1.50879865570818        3.00378301453866
H           -2.63615396516473        2.26260728545201        2.32860340034169
