37
 energy: -59.879620568709 gnorm: 0.000574245870 xtb: 6.7.1 (edcfbbe)
N            0.07584964716324       -0.52119485226704        1.33715972017159
C            0.16948309722055        0.85385542506116        0.81602008956080
C           -1.12805723640016        1.27935917921909        0.13719512325435
C           -1.35384973868476        0.65802870790628       -1.24678918762292
C           -1.98540136758407       -0.75341251509185       -1.28891025319340
O           -2.82153975531623       -0.97095143920234       -2.18724261948198
O           -1.60893049583397       -1.60664793510821       -0.44684616673513
H            1.02068226210561       -0.95232854414877        1.43143771779247
H           -0.39549674417903       -0.54046345082667        2.25900968524318
H            0.37957843049393        1.53466312464311        1.63981055199757
H            0.99136439231852        0.91164912205221        0.10176799303278
H           -1.10042636105506        2.36141204854248        0.00807042278233
H           -1.97419661179695        1.04688787159702        0.78546177777154
H           -0.40527359531203        0.58343282136195       -1.78621835743732
H           -2.01631275451278        1.29000322255625       -1.84258523861810
H           -0.51023362858240       -1.08003503867529        0.66397909798578
O            2.60093730775020        2.77322679800369        2.90929593195878
H            1.68003824764062        3.08622092509297        2.89646902709245
H            2.78472482109808        2.53252125046224        3.82242498039563
O           -2.19348448574387        1.76795690329407        3.46345562182719
H           -1.84698716192324        0.87547007866855        3.64705308873160
H           -2.91331292025388        1.91503941535377        4.08268007763028
O            3.54164552002256        1.07867717978534        0.95128835430167
H            4.45706893783429        1.34207741540823        0.82881016370478
H            3.16846933245875        1.70162082405143        1.60627792596000
O           -0.08700113053874        3.50353368389049        3.06595549781516
H           -0.47593560556766        4.36614087287232        2.90459110164492
H           -0.83263279958128        2.88796191050507        3.21063931647769
O           -2.18080885195090       -3.23269081357312        3.78801056057198
H           -3.01307505885545       -3.35117222791333        3.32173704520922
H           -1.59156851014662       -3.93675737238921        3.49806765812342
O           -1.04287442171529       -0.72417900972095        3.91389417596383
H           -1.51601104518921       -1.57675428394408        3.90116474726400
H           -0.36927112225015       -0.79875925465131        4.59787398992942
O            2.66460493733762       -1.45624107516356        1.43597262775796
H            3.06338772226398       -0.57030761493677        1.30430832968550
H            2.92048374712413       -1.98686835267994        0.67732142143734
