34
 energy: -56.694431067204 gnorm: 0.000186711286 xtb: 6.7.1 (edcfbbe)
H            1.05020328345029       -0.86553079826149        0.24034964212886
C            0.16802290866841       -0.26888667152898        0.00404490137854
H            0.77299426362176       -0.21052792435120       -1.99563344054186
H           -0.70169810036204       -0.92790670935357       -0.04177991119509
N            0.38424337988581        0.41259688266536       -1.29020168707280
H           -0.16234114180441        0.32371107871008        2.06531816109336
C           -0.01467158492933        0.78509957606399        1.09073986623893
O            1.78242286945548        2.07507699013603        0.14291620960371
C            1.19515321757662        1.75138834929894        1.21121008725154
H            1.06909013244301        1.18407175127533       -1.03893929768634
O            1.49432068517513        2.16450535286730        2.34330906417467
H           -0.48654030097218        0.85057732818629       -1.64955245278911
H           -0.88730686026207        1.40549508580064        0.87926471706382
O           -2.07549976174931       -2.77408877917199       -0.26665732173278
H           -2.89642328549307       -2.63028777044311       -0.77277803294763
H           -1.59331343740831       -3.43689355044738       -0.79320140319436
O           -1.79063580378997        1.76098520605575       -2.42306529105517
H           -2.73417704533898        1.65392880491663       -2.27178915044893
H           -1.62878361051497        2.69084604802643       -2.60326761406333
O           -1.00000340572112       -4.49143917462746       -2.19532299788378
H           -0.10073980978252       -4.68029300408038       -2.47721809484093
H           -1.46768169538803       -4.12421760107505       -2.96419336235657
O           -4.17801623409963       -2.78500892106008       -2.12071008294534
H           -3.62192914300967       -2.96074831670858       -2.89975786437514
H           -4.83776299573596       -3.48335591800818       -2.09410919148499
O           -2.47078205874594       -3.30298701916415       -4.34305390540459
H           -2.15210090168553       -2.47844735313875       -4.72688380899039
H           -2.77467483983294       -3.85565505365896       -5.07021072573271
O           -2.04230003572590       -3.08099619704322        4.69761572941908
H           -2.25029919759015       -3.39717760797800        3.79772869346200
H           -1.09451803313701       -3.20522910641228        4.80261373147781
O           -2.61496410028410       -4.01931766182964        2.12652293990579
H           -2.37621317841691       -3.51246195552428        1.31995167903751
H           -3.52126817847920       -4.31344136016375        1.99754621449247
