37
 energy: -59.866188829651 gnorm: 0.002091712640 xtb: 6.7.1 (edcfbbe)
N            0.56379807238966        1.26170665411554        2.25267890830030
C            1.06286068266821        0.43309399242567        1.13629835096409
C            0.19086386093184        0.61155411213858       -0.10183587493513
C            0.68163628879968       -0.26392870620709       -1.25170488742670
C           -0.08091394549285        0.02638589913751       -2.55941764743545
O           -0.28565374056131        1.22609959408971       -2.85546721759814
O           -0.43407688080475       -0.95778767157701       -3.24765226098589
H            0.51893477226515        2.24283546539336        1.96819172088464
H           -0.42998661819557        0.96479710387869        2.53598365734198
H            1.05035919619043       -0.61391991225425        1.43697953374060
H            2.08959439771125        0.71378583918908        0.89607574338854
H            0.21121523217535        1.64611983292668       -0.45063322393705
H           -0.84596927671827        0.35042153586467        0.11542181802774
H            0.56938050388637       -1.32723525725657       -1.03749424458542
H            1.73498139789289       -0.06052263146617       -1.46542156620459
H            1.16892393751027        1.17511231936237        3.07189063344299
O           -2.49266042334520       -0.66708287440312       -5.04490578714357
H           -1.75893261796704       -0.88944543262671       -4.43397841939142
H           -2.37416423877786        0.28738952082160       -5.20870532762781
O           -1.87100273855033        2.05673251230626       -4.88461312780954
H           -1.23588717730852        1.77640380884778       -4.18413186487914
H           -2.49535909725865        2.64629452985593       -4.44506757875870
O           -3.08432056078429       -0.17420981664747        0.60646345098169
H           -3.04655667256464       -0.99005114775055        1.13643014110179
H           -3.76520525165094       -0.30297994768949       -0.05636370222307
O           -1.90631709584788        0.61135224141660        2.98645461862644
H           -2.02895646973068       -0.33768589888682        3.15294859582321
H           -2.44905932441004        0.78076756496507        2.20178620769740
O           -5.10034327934784       -1.44736401173266       -4.43633819671242
H           -5.40444354951088       -1.74764027821999       -5.29823235593889
H           -4.17204860680247       -1.17573172044068       -4.57279595475550
O           -2.75260782313387       -2.07306361695499        2.71166714315164
H           -2.33585104358650       -2.93847154291282        2.67764873408286
H           -3.59268352757117       -2.19654252124614        3.18952455957775
O           -5.16565453825318       -2.36377150999344        4.06423755769297
H           -5.99961163910944       -2.36813946184869        3.58516954953840
H           -5.30851120509719       -1.88356456660334        4.88628731401594
