37
 energy: -59.858382856289 gnorm: 0.001349042153 xtb: 6.7.1 (edcfbbe)
N           -0.40933436227329       -1.00466680458034        1.87966110995569
C            0.42306393555013        0.04015191040012        1.25360426822053
C           -0.29860231672388        0.70517660383634        0.08226873121261
C           -1.00176734487189       -0.28195351356449       -0.86367764696943
C           -0.15374910085096       -1.52268446163114       -1.20167100612800
O            0.45871195046440       -1.55129595905659       -2.28924547294565
O           -0.13878973859284       -2.45019870479777       -0.35336342178805
H            0.05246514463676       -1.36813689328264        2.74610978756684
H           -1.32743914030511       -0.63143666097930        2.12088082376698
H            0.68019345347855        0.78821091900962        2.00487204300481
H            1.33605012544392       -0.43454678912173        0.89206339433654
H            0.43375896674661        1.27506971973004       -0.48872858202478
H           -1.04771650763113        1.40728126602675        0.45113993559096
H           -1.93200306159647       -0.64243773332954       -0.42049216989998
H           -1.24519928639964        0.22557884937317       -1.79784295324667
H           -0.49364278962206       -1.77382067015839        1.16574156381257
O            0.76311140684551       -1.92173915392998        4.19816100784829
H            0.07077110985882       -2.42472017753191        4.66731498390459
H            1.51526533165862       -2.51426068070734        4.10461652963010
O           -2.01753458146574        1.70201027524376       -3.71739231714685
H           -2.05425439436715        2.66176404632577       -3.79564605569363
H           -1.88535810328601        1.35427488163819       -4.60461504568442
O            0.83397669950480        0.95274246400371        4.29579188824316
H            1.48606920623926        1.34424876877887        4.88052041529463
H            0.86628208540036       -0.00480568842400        4.44848122755231
O           -1.30157000719331       -3.35289904116153        5.34310098299494
H           -1.95098018524287       -2.91051899210586        5.89780301064835
H           -1.75308672100899       -4.06496521383963        4.87872032871307
O            1.99301201210749       -3.79416651957167       -2.60381106051181
H            1.46613815782068       -2.96536122656579       -2.54694234296703
H            1.68383499419915       -4.33581693711167       -1.86948589679188
O            0.79386820931074       -1.35134507396606       -7.45144572647138
H            1.51060986489420       -0.99598251391300       -6.91615412516730
H            0.45277084968050       -2.11824991512235       -6.98069593789560
O            4.64698454307072        1.94870139730827       -3.35720817796483
H            4.16291457386801        1.11750677086503       -3.38369625097516
H            4.31746502062523        2.44293545229142       -2.59970884197215
