37
 energy: -59.869674803870 gnorm: 0.000236462211 xtb: 6.7.1 (edcfbbe)
N           -0.48549560032816        0.33085513388692        1.68284895587461
C            0.01442179805957        1.22109794129890        0.62070709022740
C           -0.48523212533458        0.77451720885845       -0.74946993024147
C           -0.34252603833495       -0.73533432330166       -0.99490043922367
C            1.02137642553359       -1.33069652757638       -0.57075340468051
O            1.84988676152318       -1.59852794941062       -1.46303418044270
O            1.19463824821445       -1.53482044863073        0.65937718334520
H           -0.32572266655894        0.75587618555138        2.62015186300178
H           -1.51131642364775        0.16388177161148        1.56696582417215
H           -0.31840138020391        2.23911694262464        0.81883551976942
H            1.10548998677608        1.19378443127289        0.63113534772752
H            0.07376810909033        1.32303270807675       -1.50821669989058
H           -1.54054796726009        1.03025776056938       -0.84999230941342
H           -1.11206372526811       -1.27912699902971       -0.44279150134911
H           -0.46227139795227       -0.94769337274416       -2.05847893903048
H            0.03666347381909       -0.56472609590047        1.57673910174287
O           -3.21587357690155        0.08001630786611        1.49441077529706
H           -3.62060033028351       -0.17935762041121        2.32654109557787
H           -3.41332765820631        1.03106777146762        1.36917417967938
O           -3.66695010844790        2.75161278920435        0.98186724033188
H           -4.54430385601118        3.11609780093820        1.13391485516562
H           -3.57834026237612        2.65688054986877        0.01501749244575
O           -1.41296323757371        3.77343455985419        2.27754068208557
H           -2.20685626362528        3.41356324064858        1.83987596073825
H           -1.58297735314228        4.70505441817176        2.43852649190470
O           -2.26143646125856        3.10203195791062       -3.99884655596557
H           -1.98467125022294        2.41935006707807       -4.61830742061189
H           -2.64117527723438        3.81824393518301       -4.52033508477221
O           -3.70533921185858        2.23435402069626       -1.71543527830444
H           -4.11017749614535        1.41456063127548       -2.01167277956946
H           -3.15876455465189        2.55728248868053       -2.44912109577200
O           -0.29604168875109        1.88660489544848        3.94627585810209
H           -0.71257960344927        2.61799106331392        3.44688224160559
H            0.55407116985962        2.21172065624900        4.25201632845437
O            0.17009241403698        3.67700034935005       -2.60172586549976
H           -0.69382253904330        3.51032599065253       -3.01425897011688
H            0.14678766717818        4.58669575946359       -2.28827763237274
