37
 energy: -59.877427855098 gnorm: 0.000176136242 xtb: 6.7.1 (edcfbbe)
N            0.08520202587438        0.90270844334549        2.18812749885782
C            0.14306562315275       -0.12869936502347        1.13910774751632
C           -0.47539320948396        0.47248510916275       -0.11716746325433
C           -0.54122751307101       -0.46289373463556       -1.31187065585937
C           -1.04667673291239        0.27039687597786       -2.58425345757559
O           -1.20592520381663        1.51100470376979       -2.52581308775067
O           -1.24962056084331       -0.43760341115440       -3.59433075205754
H            0.38935913819571        1.81718667141412        1.77006911392311
H           -0.90719062954932        1.00358835920054        2.50193507051916
H           -0.41478283044080       -1.01262978585990        1.44865784725630
H            1.17622988454301       -0.41371789321185        0.94116147513727
H            0.10980393294200        1.33933876094366       -0.42504807163162
H           -1.48908782181219        0.81163490501547        0.10096859495787
H           -1.21453620100366       -1.30643303396646       -1.14637468463841
H            0.44157250040679       -0.86909856995342       -1.56565486499294
H            0.67963388683628        0.71865439712850        3.00402827428611
O            1.03723628480584        3.27719067027403        1.16179508403656
H            1.98172019421625        3.20396274843774        1.37690732766148
H            0.65172512535093        3.80221558964029        1.88673441253239
O           -2.37328913235534        3.59029173069255        1.96890566525018
H           -1.58532487343090        3.82516811450464        2.49135945321372
H           -2.09915493397932        3.65124193567142        1.03543597362727
O           -0.03440657821979        3.99725757704112        3.57589042740546
H           -0.04475480707033        4.67928061663958        4.25055944281555
H            0.46483904631902        3.24051935954499        3.93946988232190
O           -1.25462944332938        3.64176952912953       -0.58277017009898
H           -0.33642600237233        3.59795817145765       -0.26848502874908
H           -1.32562638379476        2.98124028022569       -1.28988445237473
O            3.61873667424312        2.88251669285071        2.24863432509650
H            4.12181813659074        3.68378619312794        2.42387891737343
H            4.19664202201745        2.28378122252114        1.76628962528088
O           -2.57297974079642        1.06797452374123        2.81530724498830
H           -2.98288236572521        1.05733132576524        3.68365557988832
H           -2.67666436636504        1.98411241404921        2.46706650389493
O            1.77032731171174        1.91760836562191        4.19136070631465
H            2.22521850463842        1.74012846092879        5.01784659584084
H            2.44218303847815        2.21899004602508        3.55607889899669
