37
 energy: -59.872692654312 gnorm: 0.000206723593 xtb: 6.7.1 (edcfbbe)
N           -0.28075184266466       -0.62772722450476        1.93268870458533
C           -0.48012852225335       -0.90715332257848        0.49464449511284
C           -0.10923641889323        0.25334560194745       -0.41882931827869
C           -0.14382294319538       -0.26205051363639       -1.85131170252429
C            0.23512742796083        0.75379973030173       -2.94117850730985
O            0.43870298575837        1.94265267981642       -2.63823901771680
O            0.30800431373284        0.28373641167049       -4.11303899204120
H            0.69378057122282       -0.37333061794734        2.10732818634313
H           -0.89050840259860        0.12773778394307        2.25146237988136
H           -1.52168256355702       -1.17883927221825        0.33085440415957
H            0.14546879407728       -1.75826998467128        0.22871785351874
H            0.89771765855958        0.61997724548025       -0.21210326261356
H           -0.79470247937424        1.09742762844092       -0.32536436526123
H           -1.14451092702667       -0.61857688267526       -2.10557702671177
H            0.54379785161964       -1.10259467679733       -1.95629462629517
H           -0.50559210343079       -1.52835728088129        2.43682576431501
O            1.31091336483863       -4.55329031326090        1.83058315815100
H            0.56444205244154       -4.04957419432933        2.20834987381419
H            1.06098826678374       -5.48001355693712        1.87367278327490
O            1.32571331014367       -3.26414691401300       -0.60732244353293
H            1.51261586799628       -3.80975884931748        0.18199709820490
H            1.87791215661553       -3.57520415908481       -1.33755507545552
O           -1.12834214468623       -3.61398073868212       -1.71979638804427
H           -0.23989165156784       -3.54023185234301       -1.30359436029608
H           -1.02007249297130       -3.20228973570230       -2.58472226481997
O           -0.95043710625460       -3.12205239542505        2.72231376787694
H           -1.54171553234317       -3.25699609051886        1.94739999186629
H           -1.46720346009032       -3.33245603038234        3.50546920038416
O            2.24853943284570       -3.61728707394971       -3.24541277301367
H            1.43080458532092       -3.23081670636018       -3.61064947730736
H            2.97455506440202       -3.18330206923801       -3.70138354508806
O           -0.05786012484035       -2.36195767351526       -4.26785433481167
H            0.08216255083754       -1.38128611169221       -4.21770721632295
H           -0.33280435213857       -2.53524141835431       -5.17312169510859
O           -2.60595783792412       -3.38889349766290        0.58996567678008
H           -2.11540395590272       -3.45068955280246       -0.25233032171849
H           -3.29498939345218       -4.05632037207983        0.54300437597365
