34
 energy: -56.711663893836 gnorm: 0.000267631104 xtb: 6.7.1 (edcfbbe)
H            0.98078827376501       -0.13813033496906        0.10256593817405
C            0.21166908570947        0.12739219602484       -0.62168954296061
H            1.76129345687921        1.23680793738552       -1.50035111341658
H           -0.01759934639407       -0.75198314533321       -1.22231715580785
N            0.71703238024894        1.22743958717243       -1.47348519345898
H           -1.39907956652596       -0.20656761531995        0.79046414885019
C           -1.03551392511346        0.58410438624547        0.13713004216282
O           -0.24948831452232        2.82192797597218        0.38589782543926
C           -0.69028870427897        1.81272381587370        1.00541552221602
H            0.41789165520668        2.10905343771004       -0.97774505180409
O           -0.81321821844245        1.73370309669605        2.23928974625126
H            0.31870628226452        1.21236365331169       -2.41107546309385
H           -1.82918810478821        0.86960150824045       -0.55494402727174
O            2.91805589070752       -3.59317909443069        2.93095827400008
H            2.50535201601446       -3.41822569923382        2.05687634167880
H            2.23019585915614       -3.43415939851851        3.58366081923317
O            3.37057690900036        1.42036851516372       -0.92089809160238
H            3.39824840139576        0.76114734847772       -0.19144888557046
H            4.20411000708627        1.34849711609772       -1.39331547724237
O            3.17010985687487       -0.34281633701163        1.11217453577502
H            3.92560097766903       -0.74392110112086        1.58937276619317
H            2.72188217078388        0.22239709808875        1.77811187230091
O            2.04878027846792       -2.75746407893836        0.47584240816139
H            2.58617143667557       -3.12357035231319       -0.23333510341103
H            2.42208253849341       -1.86898511433956        0.66339088245951
O            2.43011112496544        3.37022630859289        0.94339317845570
H            2.82443972329142        2.84471298629035        0.22187129906527
H            1.47528274926433        3.40219151918071        0.75747088779276
O            1.99152455996461        1.42187714423650        2.80656230860694
H            1.02686868567537        1.48421427659889        2.86233247552238
H            2.26961699343864        2.22185566194996        2.30662479892394
O            4.94080003259539       -1.74323824763009        2.64146148034714
H            5.21152572481903       -1.43581653585265        3.51068268032896
H            4.32764610969755       -2.49268751434319        2.79085987360538
