58
	Energy:     -11.1313960
N          1.55717       -0.08904        0.48346
C          2.96671        0.10626        0.14920
C          3.11967        0.73867       -1.23952
C          4.60047        0.94651       -1.58725
C          4.80813        1.59352       -2.93081
O          3.86326        1.91158       -3.63638
O          6.06142        1.83130       -3.35999
H          1.05653        0.82916        0.47952
H          1.11230       -0.73982       -0.20362
H          3.48777       -0.87565        0.17173
H          3.43433        0.76927        0.91030
H          2.59848        1.71954       -1.24806
H          2.65078        0.07634       -2.00009
H          5.11401       -0.03773       -1.58833
H          5.07208        1.59258       -0.81635
H          1.48743       -0.50722        1.43861
O          0.81869        3.39454       -2.74576
H          1.70531        3.80412       -2.58222
H          1.01487        2.58113       -3.27536
O          4.11261        2.23392       -6.83831
H          4.79987        1.64399       -6.43816
H          3.25057        1.84590       -6.54343
O          7.59867       -1.31277       -2.25655
H          7.70734       -0.44139       -1.79876
H          7.05125       -1.10706       -3.05574
O          6.22062       -0.70865        1.50435
H          6.07968       -1.13423        0.62152
H          5.99237        0.24400        1.36039
O         -1.66621        0.57082        2.01495
H         -0.96084        0.57510        2.70972
H         -1.38173        1.26476        1.36853
O          7.75023        0.85741       -5.95463
H          8.30441        0.98867       -5.14452
H          7.04623        0.22042       -5.67308
O          3.10787        4.03626        0.31002
H          3.95766        3.55769        0.48066
H          2.41045        3.44709        0.69350
O          3.66205       -3.01515       -1.63841
H          4.50154       -2.54612       -1.87439
H          3.37324       -3.44650       -2.48152
O          6.25012        4.93321       -1.40414
H          6.09735        3.96551       -1.26184
H          5.34122        5.32195       -1.46093
O         -1.00427        0.74971       -1.74698
H         -0.19885        0.39392       -2.20010
H         -1.28159        0.02680       -1.12969
O          3.21273       -1.33942       -4.59754
H          4.10167       -1.11567       -4.22308
H          2.81779       -0.46470       -4.84095
O          1.96244        1.75095        3.34851
H          1.24416        1.35965        3.90638
H          2.70454        1.09821        3.40781
H          3.59236       -1.37694        2.90205
O          3.52054       -2.35986        2.99670
H          3.40331       -2.69083        2.07086
O         -0.28542       -2.43501        2.62503
H          0.44794       -2.19879        3.24710
H          0.17075       -2.84669        1.84850
