58
	Energy:      -3.4999692
N          0.39850        0.95501        0.35298
C          1.02426        2.11865       -0.27133
C          0.43671        2.48795       -1.65145
C          0.66767        1.45058       -2.76828
C         -0.22466        0.23616       -2.73435
O         -0.05724       -0.72395       -3.66194
O         -1.12876        0.12745       -1.92275
H          0.79119        0.84024        1.31440
H         -0.63409        1.09682        0.43130
H          0.88446        2.99537        0.39861
H          2.11774        1.94251       -0.36713
H          0.97778        3.40916       -1.96052
H         -0.64055        2.74856       -1.57831
H          1.73499        1.14457       -2.75598
H          0.46726        1.94295       -3.74416
H          0.62265        0.08722       -0.18140
O         -3.11624        0.57211        2.18211
H         -2.28392        0.03606        2.18841
H         -3.82119       -0.06762        1.90982
O         -1.70444        4.65149        0.42141
H         -0.77621        4.99603        0.42900
H         -2.00774        4.77829       -0.51258
O          0.25765       -1.28102        3.24445
H          1.19921       -1.14308        2.97079
H         -0.16632       -1.71632        2.46287
O          3.05274       -1.36431       -2.14287
H          3.54161       -0.76665       -2.76270
H          2.83629       -0.79146       -1.36475
O         -2.30640       -2.15970       -0.02822
H         -1.48281       -1.68020        0.23954
H         -2.95684       -1.44040       -0.22719
O         -2.54315        0.64359       -5.37800
H         -1.62687        0.98465       -5.53500
H         -2.44086       -0.34112       -5.35422
O          1.70729       -1.72979       -6.06909
H          1.69331       -2.71189       -6.19459
H          0.79735       -1.43431       -6.32480
O          2.70386        2.58394        2.80582
H          3.22132        2.15169        2.08059
H          2.25455        1.83395        3.27070
O          1.04745       -3.02646       -0.25092
H          1.45386       -2.37088        0.36995
H          0.49886       -3.61090        0.33034
O         -1.24465       -3.59489       -4.31578
H         -1.31968       -3.45713       -3.33798
H         -0.27039       -3.64893       -4.48457
O         -3.61853        2.32463       -1.02973
H         -2.99637        1.81399       -0.45331
H         -3.20884        2.28812       -1.93047
O          4.81421        1.65509       -1.28923
H          4.67965        2.56051       -0.91150
H          4.64133        1.04211       -0.53097
O         -4.48139       -0.35603       -2.83972
H         -3.64987       -0.89248       -2.87450
H         -4.70575       -0.30785       -1.87650
O         -0.84264        2.59775        3.44812
H         -0.56572        2.94649        2.56401
H         -0.48858        1.67343        3.47228
