37
 energy: -59.880557146851 gnorm: 0.000234012951 xtb: 6.7.1 (edcfbbe)
N            0.04198877207910        0.20260628228851        2.63980550463892
C           -0.14281438188867       -0.43701752327095        1.32492504420969
C            0.43368712645766        0.43721466448430        0.21490794291333
C            0.25321091056299       -0.22731627585518       -1.14910332527343
C            0.90347623257354        0.58621253614397       -2.28988997413350
O            0.47400933009042        1.75141748917341       -2.49364746546137
O            1.80957388483107        0.04301601660415       -2.94898204841610
H            1.02317363479840        0.57256235094841        2.72514043615777
H           -0.59918789777615        1.03650466511305        2.76620147164013
H           -1.20495121892814       -0.60402678874576        1.14230843945348
H            0.36887011471991       -1.40052691944188        1.31037022818100
H            1.49951887635351        0.59758473000858        0.38599987111192
H           -0.06597686986971        1.40472393053235        0.19555302694017
H           -0.80981841725395       -0.32076088112897       -1.38442064672741
H            0.71008537046794       -1.21861014339556       -1.16838353333238
H           -0.14025937487543       -0.45583466786292        3.39643095292754
O           -3.89319842587213        2.45705815588891        4.45426166208516
H           -3.82987390105371        1.73607513544926        5.08744354897442
H           -3.05136821390985        2.44716322608252        3.95695730198392
O            0.65728286135068        3.68666595345010        4.39478210074030
H            1.07280340116969        3.89192174645186        3.53914843782550
H            0.53112349806373        4.52042340731793        4.85302387081412
O            1.54709153616670        3.84594299021075        1.75182251631567
H            0.63769176362943        3.83330930314760        1.39161423766248
H            2.08679491796012        4.32012708297529        1.11569348686105
O           -1.08672890845644        3.96357381287392        0.94229790544634
H           -1.32150941502764        3.51062555134940        0.10534075482192
H           -1.54688223494862        4.80803093352279        0.93139954859166
O            2.45169913902277        1.44729870227077        2.82219213423566
H            2.69463934001119        1.67575322202842        3.72501136500584
H            2.19897202549813        2.28604164928154        2.39175958486076
O           -1.71379980413186        2.76148675298446       -1.38729280393731
H           -2.19003183507055        3.17975567421365       -2.10935089307970
H           -0.89594323978281        2.37820415325832       -1.79058268969647
O           -1.41121641850597        2.40336638272090        3.17440185811101
H           -1.40725482987219        2.93083945389926        2.35300002556820
H           -0.73652034854364        2.82979024506674        3.74704912198303
