37
 energy: -59.868586803499 gnorm: 0.000343671410 xtb: 6.7.1 (edcfbbe)
N            0.21820808498955       -0.52202604496365        1.94463643935467
C           -0.25312394757585        0.81249648383687        1.53295634225462
C           -1.07221034381042        0.72536351201989        0.24819831830130
C           -0.23122363363516        0.57417314129898       -1.02509275672355
C            0.21161469151140       -0.85380721767557       -1.40817320881581
O            0.27827845876610       -1.12109643534871       -2.62024277192314
O            0.51007129480426       -1.65904349950919       -0.48540966198355
H            1.07016029615786       -0.46948891633599        2.52838084737048
H           -0.52137994806545       -1.01818186610303        2.48068138229165
H           -0.86490715931429        1.23423401609932        2.33023844025853
H            0.60113394527118        1.47235296091293        1.37763672201122
H           -1.65381129091065        1.64164949204565        0.14831125056205
H           -1.77255971182919       -0.10858071496477        0.31486168908165
H            0.68528374074583        1.16504858118820       -0.94460815237238
H           -0.78069365960577        0.94847299434924       -1.89159361043786
H            0.42541780667343       -1.07017607986437        1.07348648118377
O           -1.72818782444108       -1.73771550274141        3.51746760304115
H           -1.38119427231858       -2.58961894665491        3.83969432610008
H           -2.63681953260468       -1.89903025399745        3.25261336712263
O            4.57489774379826       -1.61104473716541       -5.46001046858948
H            3.84572948008903       -1.00125019317536       -5.60923955002639
H            4.24037248916652       -2.30491809883908       -4.88316737872946
O           -0.69100728931770       -4.22460557654927        4.19651308275942
H            0.13217426831016       -4.28324210214546        4.69176540388649
H           -0.60223079900812       -4.80322971164628        3.43291186308562
O            1.64964499426173       -4.19696732560272       -0.53521687662336
H            1.17645467679532       -3.34703181536489       -0.62570319503486
H            2.53207578520861       -3.96725630274724       -0.22543029973656
O            1.06577937856584        3.71243831433596        2.41892529123076
H            0.88447284821006        4.56232241251334        2.00920077812682
H            0.27997860024214        3.49130172849578        2.94547918224424
O            2.57994145584860       -0.38413946999068        3.47462118913272
H            3.38716268828703       -0.07789021514524        3.05354582346936
H            2.57780251343667       -0.05689063871483        4.37930748085702
O           -1.29974111563042        3.00726564257244        3.90541303312119
H           -2.13094745831170        3.48984604878822        3.86889866555035
H           -1.19742925472715        2.69020433682434        4.80822692860167
