34
 energy: -56.717380824019 gnorm: 0.000303728613 xtb: 6.7.1 (edcfbbe)
C            0.26285234487492       -0.63025244594818        0.14205789737939
C            0.21449559584942       -0.01588786281742        1.55350825212002
O            0.14159017178577       -0.85380696222227        2.49973551547052
O            0.24168682373996        1.21586144490620        1.69135619076160
C            0.13483557002028        0.37716999921041       -0.98443490316985
N           -0.00977606965467       -0.35350953827956       -2.25967261615207
H            1.20450496025043       -1.17538799465940        0.07016412518274
H           -0.55274842395086       -1.34993307012854        0.09100417163857
H           -0.73642395298359        1.00865124382243       -0.80632489095516
H            1.01349736587905        1.02139374211056       -1.00815158985191
H           -0.85420047846813       -0.97085291367458       -2.20796171162307
H            0.82149529482416       -0.97882598975326       -2.40754648069867
H           -0.10104591023879        0.28224350303553       -3.05157832915107
O           -2.13527583487252       -2.39310455240225        2.97760151795651
H           -2.25466034993658       -2.68651034617436        2.05480794435002
H           -1.41285697092620       -1.74083630476148        2.94171116803947
O           -0.64975114626758       -4.51236501325053        3.86277468204738
H           -0.37144535232188       -4.38014570303062        4.77250645357715
H           -1.30551224235409       -3.80530548031998        3.67378944341856
O           -1.79483233951080       -3.50125815760254        0.38036976088347
H           -2.06760674364817       -4.42299546092913        0.34470303777820
H           -0.87675840027416       -3.50987818468048        0.73922755134887
O            0.59330512279380       -3.39555973483268        1.66764269830918
H            0.50767203961782       -2.47367261494279        2.00642988208131
H            0.35490687882897       -3.96052301396852        2.42739366612036
O            2.16149121421957       -1.99451676650924       -2.54893651944470
H            3.03555992449082       -1.67070127757742       -2.78176407331895
H            2.27330136514094       -2.54239243542527       -1.74979545690495
O           -2.22643595291156       -1.96016064143059       -1.91453180367180
H           -3.12030873577595       -1.61767117078460       -1.83468140351804
H           -2.08292993905543       -2.55110420227609       -1.15304911208212
O            2.61441870179296       -3.42927457277973       -0.23067667791513
H            2.97002333149943       -4.32235426290872       -0.25919885832074
H            1.93347913754454       -3.43187325900749        0.46693746831109
