37
 energy: -59.879153911108 gnorm: 0.000348349479 xtb: 6.7.1 (edcfbbe)
N           -1.23354600237478       -0.38035323102906        0.77744601329312
C           -0.60362702440522       -0.78977300295565       -0.49316163086136
C            0.39633372497530        0.27076989193961       -0.94130384657283
C            0.86539223677090        0.02483278201936       -2.37377044289230
C            1.40401724526365       -1.39483916425818       -2.58425482754798
O            2.26254948248237       -1.83446709639474       -1.77959982561678
O            0.95865186233658       -2.05617908000026       -3.55129717919300
H           -0.48807419653872       -0.17036016542509        1.48440427980369
H           -1.82040279608332        0.45892002887595        0.59571759499110
H           -1.37223214630147       -0.90945189897881       -1.25687766200276
H           -0.09236322995248       -1.74439070759086       -0.36398757135584
H            1.26260207305243        0.26572160110309       -0.28208520579155
H           -0.07090272405414        1.25410748342808       -0.90274150490546
H            0.05057475963602        0.17917757837869       -3.08109575998309
H            1.67572505821829        0.71393412464668       -2.62325844247653
H           -1.82989251909078       -1.12309423074738        1.14266864932080
O           -2.96384973308576        1.47630432931699       -0.28116985401266
H           -3.14373810315275        0.95231888172804       -1.07930104968294
H           -3.06557695685356        2.39916645717561       -0.52353405429821
O            2.63379586002090       -1.61382014779601        0.97541685630849
H            2.60514705100503       -1.52400918898404        0.00502805661255
H            2.53823426522121       -2.56239005595452        1.12379215088102
O            1.82477863937691       -4.14987617345278       -0.36772700106489
H            1.99514347090017       -3.41535936689504       -0.98852203381756
H            2.15313575522351       -4.94219823871779       -0.80093486131303
O           -1.56805889964937       -1.43148550865064       -4.32127983581379
H           -1.64199041672167       -1.62639053198697       -5.25978345796996
H           -0.66282432914172       -1.70656026712003       -4.05858384870075
O           -3.35609744536631       -0.23198566001093       -2.50465685571671
H           -2.72226216518522       -0.56052811337451       -3.16196256774152
H           -4.14562047687470       -0.77233508639957       -2.60323714175931
O            3.31991179294953        2.47885401567166       -2.63568338273244
H            4.21379238062617        2.35773619990208       -2.30128438560227
H            3.16255234110756        3.42854352952417       -2.68055729625725
O            0.88501057070463       -0.10820532011755        2.47657141869932
H            1.54535074686844       -0.65530128806511        2.00706605146529
H            1.34039084825976        0.68549662123715        2.76883345393592
