37
 energy: -59.865345845435 gnorm: 0.001086722448 xtb: 6.7.1 (edcfbbe)
N           -0.29287780217570       -1.08227841275272        1.29738240915379
C           -0.21156855508310        0.39282046262194        1.24699061310018
C           -1.05321972831567        0.95273189292063        0.10516447214355
C           -0.63023790256012        0.42896633975783       -1.26545529124337
C           -1.13800052805225       -0.99049237695311       -1.57337502078779
O           -0.46599904138087       -1.68017658386087       -2.37686062006325
O           -2.17259052732527       -1.39443467492787       -0.99013877282000
H           -0.12369848253105       -1.45760538715102        2.26601523907050
H           -1.22022872530644       -1.37918696545984        0.97332727066625
H           -0.57261736283599        0.80292259244791        2.19119513297138
H            0.83126187509930        0.67808120646940        1.11211229430910
H           -0.97384586407386        2.03878742158097        0.10900544731356
H           -2.10214332880318        0.68674966492805        0.25315817251311
H            0.45332955383387        0.43824801500932       -1.39075915302794
H           -1.05544996476737        1.05835371343190       -2.05209756736950
H            0.40540091293435       -1.50982858758316        0.65344369585487
O           -2.83122532842513       -3.96154162773975       -1.67295122369897
H           -2.65840831553653       -3.02961602547667       -1.40698363345401
H           -2.29903803335570       -4.09728023275944       -2.46286787193274
O           -0.25810107243530        2.00428473866814        6.51171045458776
H           -0.44111579339172        2.13634304867385        5.56320226434170
H           -0.74037475127994        1.21212890916901        6.76675000715350
O            2.81055762206671       -1.84739183432046        4.52270918035437
H            3.49470999235794       -1.73413615580092        3.85565727209979
H            2.97776334828122       -1.20423940802267        5.21909947288429
O            1.51784427779168       -2.20689205444744       -0.53073750290591
H            1.73650100188414       -3.14313432219097       -0.48544728302899
H            0.97553354894983       -2.08709645358157       -1.33010648936035
O           -2.25451117496955        2.29368106076544       -3.78752431226897
H           -3.05593508115255        2.81043176691128       -3.65208393474102
H           -2.26579752033700        1.99251581077068       -4.70103446081516
O            0.16954174936267       -2.16395942682626        3.74240699509080
H            1.09211596884503       -2.05324577959767        4.03797510852919
H           -0.03733929309966       -3.09833524144455        3.82873214110546
O           -0.95820524121291        2.65648520529134        3.85207060994270
H           -0.42696450608126        3.43359528448113        3.65205725238441
H           -1.87597592723317        2.94588241696641        3.87866663183138
