37
 energy: -59.862967001531 gnorm: 0.000215868435 xtb: 6.7.1 (edcfbbe)
N           -0.34226074368199        0.24735962599489        2.11248998395601
C           -0.62172606070806        0.53232784619267        0.69089020931211
C            0.66994944541879        0.66696384846692       -0.10487682273832
C            0.38356961852656        1.01224724525743       -1.56122119884548
C           -0.21435321915499       -0.15906739073238       -2.37578267653133
O           -0.33138979658981       -1.27459118128250       -1.83606447997075
O           -0.54192144855832        0.10175500856870       -3.56406530176455
H            0.04016960819557       -0.69223565756555        2.21935068081131
H            0.35360416132523        0.93585538317316        2.47194077943200
H           -1.19091523568202        1.45964757571318        0.62871305948643
H           -1.21363383566513       -0.27218337207871        0.25311993946234
H            1.21047507665094       -0.28133871149527       -0.08962799415760
H            1.29367898500137        1.44723045893253        0.33287242980302
H           -0.31233950383111        1.84904105801723       -1.64408595742021
H            1.29935537364174        1.30149227910549       -2.08201704615159
H           -1.22665650178189        0.34616975499035        2.67333922432457
O            1.52863863435598        2.08976230033714        3.02183006721844
H            1.21586793127401        2.88823981136653        3.45780929026699
H            2.33651541143366        1.81123686968708        3.46242720525963
O           -0.47949595479810        2.70638047921629       -4.27877080913541
H            0.46009481727840        2.92294611796579       -4.14096094133241
H           -0.54655350863353        1.74486556976477       -4.07289272179267
O           -2.71781225726252        0.75204876983110        3.32732447567183
H           -3.42856340718913        0.10552989161284        3.34237556976066
H           -2.98534399297952        1.45477886627903        2.70901607576480
O           -3.27343923843439        2.62264350269666        1.32114493383006
H           -3.94538808023199        2.48015997909288        0.64901332400111
H           -3.17790915704051        3.57354392622262        1.43239095634366
O           -1.42125840811399        3.46723468428059       -6.77894695363080
H           -1.11334340276566        3.25805346677220       -5.87474411058004
H           -1.82109973754508        2.65685382297609       -7.10757160451405
O            6.08402117430027        1.03973526525502       -0.19138087356513
H            5.75570902312968        1.61894562565120       -0.88611917757867
H            5.76332154046921        0.15435994474044       -0.38938049711176
O            2.26402060477018        3.35890227956243       -3.93574283962066
H            2.38171638623799        4.28481589099447       -3.69477210937306
H            2.72739269862862        3.22455516442420       -4.76882908896173
