34
 energy: -56.715817475840 gnorm: 0.002761909621 xtb: 6.7.1 (edcfbbe)
H            1.47495513695143       -0.31345034717476        0.06304209009681
C            0.43863894766226       -0.20317908423662       -0.25737565737998
H            0.76368100804973        1.59133040898497       -1.29581990740242
H            0.26873973923604       -0.78629917109779       -1.16174053662320
N            0.17236499609128        1.22213100653497       -0.52892231331658
H           -0.21911109574941       -1.70563117742657        1.15364986957022
C           -0.49329081977619       -0.69816274435565        0.83982670665627
O            0.27906924921501        1.15501076090032        2.17216307326079
C           -0.49252175309956        0.18339351192379        2.10013835470098
H            0.36066131982250        1.71469713415162        0.35961714764837
O           -1.33640536192988       -0.12600108330488        2.99219453414941
H           -0.83787116175470        1.35679231779444       -0.76175383529783
H           -1.51898294233659       -0.75026280394702        0.47545237422340
O           -0.99086223756648        0.67033723486026        5.62713493289837
H           -1.06102706050736        0.41414381968286        4.68513730426066
H           -1.72545974029977        1.26830945193908        5.78933733928184
O           -2.48727902514371       -2.59104854329718        2.68571304318091
H           -2.06978500174378       -1.71773360908871        2.84549778554244
H           -2.84617848912771       -2.87304389079205        3.53187692951057
O           -2.53973331471505        1.38822706688716       -0.99569557106217
H           -2.95014143000324        1.98871130786752       -1.62488767527311
H           -2.67815371367327        0.47512343889532       -1.34053146812136
O            1.67430681434269        2.10506221453686       -2.70357478150046
H            2.63069961807294        2.19454719259217       -2.72204069328792
H            1.36906377983153        2.00114069336749       -3.60965537061581
O           -2.85315403513738       -1.17493558127375       -1.75783922912352
H           -3.30963950159601       -1.51379900336721       -0.95546494586792
H           -3.35637727553573       -1.49906361500479       -2.50900942202477
O           -3.70159963244237        0.75155592963180        1.48594175823032
H           -3.29369043960170        1.13141255341115        0.68268717248147
H           -2.97330463729370        0.55385948575287        2.09236903133791
O           -4.09914014960098       -1.80302978466438        0.55277613653715
H           -3.56611879527075       -2.27049311320528        1.22063227070904
H           -4.18477399526724       -0.89299497752497        0.90671755259867
