49
Coordinates from ORCA-job input E -1203.989150625681
  N          -0.72590815844711      0.07346644732311      1.39096643979607
  C           0.42120065656317      0.13215155713378      0.43674165386632
  C           0.34192890038719      1.28090026968278     -0.55599855664161
  C          -0.79892964770106      1.18098827411784     -1.57904668316009
  C          -0.79827135353319     -0.14144286773310     -2.33212170144915
  O           0.22960535873245     -0.44774109852413     -2.99829743026413
  O          -1.82053294664678     -0.88282030443178     -2.24330194192814
  H          -0.63588386743330     -0.79827849844601      1.94623998739218
  H          -0.73118989547020      0.89632368908770      2.01644377618679
  H           1.32384507680889      0.21997143327287      1.03950848478584
  H           0.45487148915099     -0.83129226368121     -0.06797735670791
  H           1.29889543023681      1.30558187774871     -1.07767207442370
  H           0.25278118184733      2.22773540486833     -0.01819892522969
  H          -1.76690686423444      1.32696036006634     -1.10256900806181
  H          -0.67591499075304      1.98184421264375     -2.31228015846331
  H          -1.64492196069903     -0.00164617048328      0.91229053844994
  O          -1.50176869950691     -3.49640734214720     -1.48307692564045
  H          -1.57212857728556     -2.59391103654835     -1.87270662381335
  H          -1.65873133352034     -4.11804862368460     -2.20458306426979
  O          -2.88872652371328     -3.24511086412505      0.88638974237673
  H          -2.50389123114641     -3.50269079321712      0.01955102123705
  H          -3.56954670112998     -3.89658846601827      1.09402903948681
  O           2.05234665268572      1.48000902188429     -3.76411490264856
  H           2.30371166968766      1.30192828642088     -4.67847506176727
  H           1.36968304408393      0.80741330046609     -3.54098813520589
  O          -0.62446783605066      2.41465625740713      3.06736147186134
  H          -0.79336527751343      3.21080110338415      2.54602600282219
  H           0.26121894738210      2.53948456238611      3.43351784769091
  O          -0.46830248804649     -2.62555956537404      2.24824100488064
  H           0.13089950928991     -2.92512997958801      1.53011438349873
  H          -1.35023699262027     -2.91608235747473      1.94502223512106
  O           3.91456811856804      0.55372010593421     -1.82686510734792
  H           3.50858395082364     -0.32278559605182     -1.71059776132600
  H           3.36361577083069      0.96097595181843     -2.52373526803590
  O          -0.16467452611720     -2.60491485717271     -4.82204898504087
  H           0.03557438482453     -1.88849457064285     -4.18918504998604
  H          -1.13401002627428     -2.55703561955157     -4.90190027378570
  O          -3.22015739598168     -0.53977355215855      0.12117932637062
  H          -3.27944963505556     -1.45489875888986      0.45831840677787
  H          -2.86424902662318     -0.63939668652652     -0.78792889586088
  O           2.34351156421348     -1.89388390758955     -1.84243478935004
  H           2.72295781097110     -2.48654968474158     -2.50455824149911
  H           1.59843572238323     -1.44275194641460     -2.29172821532658
  O           0.90150759224867     -3.54937245213965     -0.02016356635425
  H           1.49459984991076     -2.98477836193666     -0.55278763178310
  H           0.09324869793476     -3.62186673920176     -0.56634235774091
  H          -2.65170573882401     -1.56266142813873     -3.73965034173132
  O          -2.97540391905916     -2.05513028783827     -4.52079009516870
  H          -3.31202715435446     -1.38374827269329     -5.12692934484195
