37
 energy: -59.870104446554 gnorm: 0.000711610983 xtb: 6.7.1 (edcfbbe)
N           -1.28882286358747        0.83814238153884        1.03750399313236
C            0.15248885188493        0.53444119303464        1.06645644372807
C            0.80527427359661        0.70714515939826       -0.30237542368559
C            0.35839260709109       -0.33233205312010       -1.33422710054604
C            0.75618802422141       -1.76134854149981       -0.89777666600687
O            1.95195832029844       -2.09229030099343       -1.00327724380571
O           -0.15768588725686       -2.50395414161339       -0.44942404526905
H           -1.66692141398532        0.93264897652223        1.99712354995641
H           -1.47117472293800        1.75570451034184        0.59101154656512
H            0.64038431599412        1.20672516962026        1.77236790933959
H            0.29681301053160       -0.49343713134223        1.40237815831482
H            1.88641436720466        0.61144776014963       -0.18338177898504
H            0.59333658968887        1.70551846041328       -0.68807271281191
H           -0.71725648882776       -0.29943952466982       -1.49679762024789
H            0.86933394436969       -0.14148044463902       -2.27984087486610
H           -1.81799489068902        0.08634726254203        0.54054405347538
O            2.57497203072380       -3.74163111290852        4.03769771841780
H            2.03485965929148       -4.19689783816581        3.38438276649603
H            3.24732630236547       -3.25405954240765        3.55144628996016
O           -4.45572956669627        3.25638662243384       -0.86166111870470
H           -4.26380138904654        3.07058318288269       -1.79612595549779
H           -5.21297629000730        2.71111946489012       -0.62887528346807
O           -2.53070074652917       -1.33669534205382       -0.11357012811802
H           -3.10304576345656       -1.90720314926199        0.40680714989245
H           -1.69962785799313       -1.84798154672554       -0.26891590783084
O           -2.24076151879250        3.43339204763547        0.71874040707796
H           -1.85167428178380        4.30020020407726        0.58147150742133
H           -3.04949423156787        3.40467131647591        0.16879477123017
O           -1.20895803388696        2.90127391170737        5.53298945483490
H           -1.65131363491736        2.62883002869739        4.70690493989064
H           -0.73687729929359        2.12639407924914        5.84925645149883
O           -2.53810459401924        2.09623271425631        3.18049682027545
H           -2.50326039591782        2.76497977552069        2.47122373924451
H           -3.46870406323462        1.96171167383648        3.38245562224489
O           -3.86252255566613        2.51874980225568       -3.50783056422464
H           -4.02486080892619        1.62292832823910       -3.81924163429905
H           -3.08206999823297        2.84234564391925       -3.96765223481960
