37
 energy: -59.881531101475 gnorm: 0.000737013716 xtb: 6.7.1 (edcfbbe)
N           -0.54492575210668       -0.12133537907042        2.92169942921586
C           -0.48979558456682       -0.74078312470657        1.58679845902298
C           -0.19416129774504        0.31994884225322        0.53352623866354
C           -0.14379097111022       -0.26077417170659       -0.87187457106565
C            0.23104492124446        0.77003776171589       -1.95352809397355
O            0.40935610135854        1.96356376830375       -1.62760577475509
O            0.33605252733612        0.34004459118339       -3.12895243493523
H            0.29400609017950        0.45312712806574        3.08008154773686
H           -1.33515439434787        0.54936468261549        2.98161386438877
H           -1.44325348501477       -1.22316357278530        1.37372461054774
H            0.29051079946961       -1.50171266688182        1.56926744687436
H            0.77013645951747        0.78487445274799        0.73984229082800
H           -0.95476365983231        1.10214080416783        0.56000752764658
H           -1.10953530121814       -0.67711242791165       -1.16830682180392
H            0.58977386848239       -1.06616123980573       -0.94460097155414
H           -0.63575108045330       -0.84592480862378        3.67752048147631
O            1.33469510778714        3.35519255721203        0.54081476978258
H            1.02263345347593        2.84246713412558       -0.22977736686598
H            1.19155201947751        4.27769896454179        0.31028455199123
O           -0.64018610782026       -4.07276542198079        2.89134969560185
H           -0.65447407432020       -5.03051216084184        2.96428398368999
H            0.13171489673901       -3.84524651450702        2.34640708634467
O           -0.87591621438587       -2.09832242717905        4.76716994911948
H           -1.75505379672548       -2.16461620382717        5.15030286551391
H           -0.77328856423037       -2.86869120938954        4.17450325477132
O            0.84857099685937       -2.30654219574776       -3.47468863247336
H            0.72048059002589       -2.49045324966187       -4.41028928014296
H            0.66565360198553       -1.34731921331666       -3.37080039486595
O           -1.99510836179483        2.21477861632972        3.24705865698902
H           -1.08009130138577        2.54253840731308        3.19745291176170
H           -2.35149964885494        2.51418952995015        4.08814583130158
O            1.67411422471503       -3.39328743588562        1.43394322567992
H            2.53207662154977       -3.29239022086973        1.85941263310185
H            1.83033867006616       -3.75384152644304        0.55755466295722
O            0.81804585825449        2.41117264422165        3.09220006290817
H            1.46511195501231        2.84696701341454        3.65422205017505
H            1.00397683236954        2.70643527293075        2.18275825427975
