34
 energy: -56.716167370289 gnorm: 0.000281034292 xtb: 6.7.1 (edcfbbe)
C           -0.82195801509945       -0.28296643156595        0.70159943984843
C           -1.24282652396350        0.36572174965511        2.03294386643500
O           -0.32445925535085        0.87858670204853        2.72868596131829
O           -2.44397517085984        0.34452961392317        2.34802755913877
C           -0.08769050777367        0.71409510239470       -0.18765041732234
N            0.70923456918750        0.02707512714247       -1.22148287818221
H           -0.15648135136612       -1.11003935079281        0.95624056466378
H           -1.72191128580796       -0.67669363688394        0.23050788569839
H           -0.79991815492253        1.39407929234279       -0.65535120620896
H            0.59219347695917        1.30230457827020        0.42845329144449
H            0.10969867990062       -0.47288243589391       -1.87716227825531
H            1.35082368683025       -0.65533252187076       -0.74722775635388
H            1.30206227389461        0.73625100933076       -1.72852383725599
O            3.09854603035978        2.39245463719654        0.45297677587174
H            3.07706160225673        3.21743461872587        0.94309423316502
H            2.88234154734740        1.68520630782704        1.08876719517777
O           -0.80518941178717        2.01841652293277        5.13591806877601
H           -0.66061730451500        1.57021791384439        4.26906762195249
H           -0.47618932360566        2.91644322537322        5.02066519879214
O            2.32173630268964       -1.54554315113320        0.31634556113689
H            2.39561868219714       -0.91110316606742        1.05526922937578
H            3.21466868656534       -1.82578725548877        0.09674324172378
O            2.30783579542081        0.41503531534193        2.26239042064287
H            2.72692703127733        0.29831356389228        3.11967177747440
H            1.35420919328422        0.57356703732996        2.44488413461552
O           -3.58355344827245        1.67638765084611        4.54069578568979
H           -2.73779870495432        1.85418924604655        4.98472457716096
H           -3.33052357734723        1.17711714972990        3.74175111116755
O            0.43212905828939        0.65968129722487        7.26668570174740
H           -0.27196131790241        0.26139541875221        7.78665765337053
H           -0.01058746581103        1.12086595817404        6.53090619961016
O            2.33972849279185        1.95609010997613       -2.16216105783173
H            2.65801870701240        2.21926259905519       -1.27762419433904
H            3.12055100303245        1.76470320223867       -2.68958843029535
