37
 energy: -59.879450790002 gnorm: 0.001682119489 xtb: 6.7.1 (edcfbbe)
N           -0.76888890339411        0.50826288723188        2.42345871472485
C           -0.94486842796785        0.27959137505857        0.97908694305900
C            0.38957444558447        0.40602492405965        0.25264696836192
C            0.23853549564541        0.17233392246174       -1.24668950792163
C           -0.14325611466587       -1.26111383446431       -1.66235027700914
O            0.13192316528649       -2.21456277393051       -0.88477382268839
O           -0.68902318333382       -1.40585730467603       -2.77192576429155
H           -0.21970766972595        1.37509048929662        2.56915409679634
H           -1.68646882356764        0.61001929373847        2.89732628773406
H           -1.64486722341391        1.01326134737822        0.57680584222472
H           -1.35226234965957       -0.71742244697445        0.80795848279298
H            1.09808409285450       -0.31973679461603        0.64983156496510
H            0.79077171896625        1.40829154634588        0.40816254705886
H           -0.51282380495053        0.83331839988051       -1.68388307223898
H            1.18490803961952        0.37293052465967       -1.75652445356247
H           -0.25338579778368       -0.29696240525277        2.85786511378269
O           -0.56387531584683       -4.54319228539881       -2.15751845677408
H           -0.31360377087338       -3.72613659565951       -1.66965641649890
H           -0.93901210016365       -4.22324247205654       -2.98414259075806
O            0.53344706331393       -1.64554295155415        3.48652665615935
H            0.99923264597026       -2.02859973826931        2.71703351644196
H            1.22889600311286       -1.39308948421787        4.12246472147701
O            2.38501259752209       -1.01379831084794        5.45645466136766
H            1.97960340961213       -0.64278781651780        6.24725165899593
H            2.95398348517726       -1.73492274955872        5.73966389406351
O           -1.38495384979198       -3.35007517235835        4.60323476069781
H           -1.68193514744184       -3.88058135154893        3.85940973335426
H           -0.69116798940055       -2.76008765768974        4.24812153563727
O           -3.22057683157468        0.86008776340652        3.72966725399342
H           -3.16298965184766        0.95022327962186        4.68618017802904
H           -3.96704279378792        0.28588526148861        3.53978364956809
O            1.77184262587515       -2.61965445941711        1.25347746720958
H            2.09245402841145       -3.52252387955478        1.18942440939923
H            1.18154304377495       -2.48966928631760        0.48337654868172
O            0.72338328754848        2.88964273318907        2.65809401855560
H            1.60096797136111        2.93257588781954        3.04986264341371
H            0.27422162956140        3.71665913527011        2.85559649318251
