34
 energy: -56.711382603950 gnorm: 0.000276297394 xtb: 6.7.1 (edcfbbe)
C           -0.13759296082484        0.02289085362980        0.90435678981191
C           -0.13092119601672        1.00302258572695        2.09110973515894
O           -0.78897167490341        0.62278377050344        3.10517318172173
O            0.50535990115740        2.06217419885041        2.01876221722853
C            0.40620149348503        0.63221163481518       -0.37528378134789
N            0.65532937510677       -0.42194612019088       -1.37742979055515
H            0.47125081407322       -0.82775105766055        1.21886712643299
H           -1.16289429356419       -0.32601587432122        0.77589325272515
H           -0.31831790314789        1.34367387667045       -0.76963231145440
H            1.32424685852052        1.17619233380564       -0.14704780367660
H           -0.20279022146715       -1.03187586771861       -1.45947051876069
H            1.42783143134824       -1.01866682952406       -1.07775666573281
H            0.87861272338777       -0.01281077981698       -2.30837550033460
O           -1.58376301853305        0.62343075276399        5.74303805891683
H           -1.27028632168926        0.79566558306280        4.83667189110171
H           -0.79435410590582        0.53495520429136        6.28673524130048
O           -0.99426978087067       -2.11163136690551        3.36279087214340
H           -1.78525776016307       -2.18518533530825        3.91975828541392
H           -0.87103633794013       -1.14699600132093        3.25883589800218
O           -0.87389823325800       -3.43326139779314        0.95379986538758
H           -0.90860408467644       -2.93796659364920        1.79549797277187
H           -1.21188936150111       -4.31080355019912        1.15350649556409
O           -1.45632904539513       -2.12102402062847       -1.38751970638118
H           -1.53380282907215       -2.80630004555200       -2.05827684315158
H           -1.32578553811670       -2.57819933892496       -0.53369134612185
O           -3.20221072800886       -1.50726275752509        5.04745737999197
H           -2.69374438526322       -0.73642384687692        5.37023435875104
H           -3.75290643275233       -1.79746711909502        5.78057972778532
O            1.18847291804293        0.69546903187736       -3.85966445857955
H            1.74076269805324        1.46928589205934       -3.99956970707753
H            0.47370891089349        0.72390626110070       -4.50240261849194
O           -3.46891619013470       -0.07257532282285        2.55655835226810
H           -2.58007481549905        0.27980259131331        2.73014744246355
H           -3.65078490536273       -0.63974434466353        3.32201390667271
