37
 energy: -59.864472967454 gnorm: 0.002618975077 xtb: 6.7.1 (edcfbbe)
N            0.19916596836723        0.06525672900044        2.15676285269567
C            1.20034559885154       -0.44928983581320        1.20095064062327
C            1.23413682071483        0.38892550030010       -0.07512755487083
C            2.40392245002035       -0.02012366988678       -0.97041557019088
C            2.31935356935778        0.72932477072232       -2.31923398484015
O            3.05428744485798        1.71953615028622       -2.48654106323497
O            1.48871586852111        0.29461552770250       -3.15924599048938
H            0.39136694305028        1.04433303159414        2.38209877608603
H           -0.73615381909687       -0.00036863296997        1.74934705489529
H            0.94151039662116       -1.47648252584125        0.94352949401932
H            2.18394719296050       -0.43081246717482        1.66818673047710
H            1.34390590506504        1.45128201593634        0.15545376816898
H            0.31275587405852        0.25729771046086       -0.64583169561858
H            2.36436035292737       -1.08925046631963       -1.17988814565758
H            3.35900844498875        0.23108732926281       -0.50775228791059
H            0.21724506927276       -0.49275966064781        3.06222885297857
O           -2.99806156113879       -3.60753696138458       -0.42116846740893
H           -3.41533020871986       -2.77744608065709       -0.66878090022363
H           -2.04223213250566       -3.40878230078962       -0.31523483333802
O           -0.30710734281069       -3.06831974458017       -0.23267840685719
H            0.14719843771361       -3.91660039287614       -0.21486615175975
H           -0.09321228581359       -2.67511512006979       -1.09916585010668
O           -2.14912673000260       -2.69329583384424        4.69653764251552
H           -2.26400401789342       -3.52289663172211        4.22297179747444
H           -3.01835331636706       -2.29374517547757        4.79326822603253
O           -4.68369717232807       -4.56653094240337       -4.58204681992547
H           -4.30430633476824       -4.96586954983832       -3.77278654543031
H           -3.95668468761173       -4.49683324750627       -5.20759544083555
O            0.35441509293515       -2.09338810577836       -2.72102258725288
H           -0.03676926084806       -2.36488677118163       -3.55625576534379
H            0.75569227438693       -1.20708851302088       -2.88522761579588
O            0.21426030590533       -1.26125398684136        4.48603102499864
H            0.92072764600587       -1.85923937988449        4.74437257795527
H           -0.62287017082072       -1.74007307621912        4.62280166959611
O           -3.55176217382004       -5.59438077339458       -2.24038286149654
H           -4.05691177972833       -6.25019941144872       -1.75085764842862
H           -3.33330666224056       -4.89133950755340       -1.59195492156217
