34
 energy: -56.711489257448 gnorm: 0.000319000868 xtb: 6.7.1 (edcfbbe)
C            0.31526579223690       -0.64213886754394        0.15481339110095
C            0.41441462941927       -0.66228191591174        1.70264136257543
O            0.10976639857734       -1.72212762012969        2.28044375402063
O            0.80568317891363        0.38441052193983        2.27370363861728
C           -0.39582940562766        0.60113301737499       -0.35664382260208
N           -0.36818509600865        0.66942303550562       -1.82946159198016
H            1.34017315537900       -0.66517109378952       -0.22183137966139
H           -0.19340255734859       -1.56099310500726       -0.13818887349595
H           -1.42730883100503        0.60429640758513       -0.00293717770004
H            0.11142544832645        1.47833517941757        0.04188738051328
H           -0.90908487873555       -0.09086540239330       -2.23943790426819
H            0.62581949080000        0.60036865708669       -2.16446954853659
H           -0.74244084050609        1.60727885911243       -2.15363238042828
O           -3.77283467759818        3.91676083134932       -2.05137589672327
H           -4.20567832452823        3.96292092889030       -1.19380678802875
H           -4.42210003239172        4.15369700269305       -2.71910307082915
O           -3.18342505537859        3.64880671052305        3.34206073054531
H           -2.30442782872503        4.00622042936920        3.17870005568613
H           -3.06032477177141        2.76033306426320        3.68915384517236
O            0.77775225645683        4.22489530691638       -0.68512099453326
H            0.82197393811701        5.12048941014211       -0.33959500268503
H            1.13689881914633        3.64759908220377        0.01429250749420
O            1.78735223861002        3.34413090486043       -3.14802684860742
H            0.93356866972007        3.38105320818879       -3.59822617594664
H            1.60800289137998        3.70601377472900       -2.26163860321611
O            2.20527730138055        0.71507459731609       -2.71995993412958
H            2.50200962653855        0.29983419366262       -3.53354919725877
H            2.20320457006734        1.68692178473650       -2.88606118557915
O           -1.09388665826258        3.16416844570846       -2.49073941931603
H           -2.01770708726696        3.43528541463980       -2.38144341781628
H           -0.58523872173480        3.62161994130515       -1.79838066222445
O            1.87803601571738        2.66283744691397        1.29043998300383
H            1.47742988608980        1.86136629527098        1.69073083711942
H            2.82723346017417        2.57225755257719        1.40990038963315
