34
 energy: -56.713485028051 gnorm: 0.001213638668 xtb: 6.7.1 (edcfbbe)
H            1.23736017112639        0.67499044764945       -0.80005698537810
C            0.58264069813421       -0.19666283638782       -0.76049443258945
H           -0.12680554154245        0.36821227896596       -2.65064454732520
H            1.16318420885643       -1.09520436028513       -0.97104060662974
N           -0.48354924350383       -0.05063733341084       -1.76911297626418
H            0.71656726178738       -0.48941080458686        1.38970977529544
C           -0.03839310498411       -0.29198061476118        0.63027131528940
O           -1.38497419910881        1.63341271609516        0.13781489572890
C           -0.77838294688419        0.99879122666777        1.03741328151972
H           -1.16489621019041        0.61268962088953       -1.35509381349244
O           -0.74424564498388        1.33032542302554        2.23988487311323
H           -0.93419663545330       -0.97737860999837       -1.95371147912182
H           -0.77327921786718       -1.09958800266417        0.66314055216212
O           -2.45422353726760       -3.69356163616810       -4.37432029808051
H           -2.54275937513511       -2.92879577523672       -4.95052642288656
H           -2.09719690887187       -3.35006821754149       -3.53343261410925
O           -2.13725854439601        3.38673674858257        3.41199332390131
H           -1.52352228551452        3.67204734192750        4.09779059529593
H           -1.68400430422715        2.65011951820554        2.94923674289727
O           -1.32584643275850       -2.63453998752904       -2.03207337017603
H           -1.77858519656570       -2.77573646139477       -1.18165642577163
H           -0.42010793723314       -2.98196223744592       -1.91328491386275
O            1.31810902543999       -3.39694207846073       -1.72093054467569
H            1.75803959404854       -3.54555983929008       -2.56395649494296
H            1.56424754384426       -4.12152960121234       -1.13870182258693
O            0.35943143143875        1.63068051891418       -3.77240538987333
H            0.09823812380177        2.35426519271935       -3.17124526568119
H            1.22944761493700        1.85264875299745       -4.11341024148435
O           -2.54043096066855       -2.84811591852018        0.45712619636757
H           -3.44615845770562       -2.53073826846305        0.51968488062112
H           -2.49128200946629       -3.66608741857974        0.96224256761761
O           -0.43002584062214        3.38041598719538       -1.78079642665434
H           -1.06622162301613        4.09085452216971       -1.90424195567085
H           -0.76507751543902        2.85537770591151       -1.03169197243045
