22
 energy: -34.417075868578 gnorm: 0.000175026111 xtb: 6.7.1 (edcfbbe)
N           -0.54429392931501        1.23487507010709        0.11390195638041
C            0.58963679531472        2.12155075602211       -0.20913838470433
C            0.57924504080830        2.51624537018498       -1.68434263604937
C            1.05958698114935        1.41264374497732       -2.63594452933876
C            0.02063196173935        0.35094995976981       -3.05288322093830
O            0.04432594476728       -0.04788050496278       -4.22702173585217
O           -0.78031677571542       -0.07737742074191       -2.17430870553114
H           -0.36591847597074        0.68692794111768        0.98126459340102
H           -1.41127029820542        1.76299166710203        0.21304968180525
H            0.53726407438074        3.01730671959710        0.41012326995442
H            1.51725860971448        1.59600012322932        0.01884507356381
H            1.24483025886457        3.37021504962832       -1.81324311619637
H           -0.42329656032936        2.83153807260010       -1.97908899493185
H            1.89465948647309        0.86495945245084       -2.19103226673998
H            1.41973304905393        1.84993835889763       -3.56905433309369
H           -0.67457199655968        0.57548739821455       -0.70974661374918
O            0.04312473816094       -0.22917099016718        2.38445834003201
H            0.22356010185194       -1.16265872583600        2.24069569883160
H           -0.47763346413913       -0.15338106314687        3.19018350698334
O           -2.69715413235659       -2.01782778465800       -2.68097781022172
H           -2.58826664418144       -2.25016997131253       -3.60724011114837
H           -2.02151731239951       -1.33159731776641       -2.50295611955138
