46
 energy: -75.164332201571 gnorm: 0.000758436494 xtb: 6.7.1 (edcfbbe)
N           -1.24167373661075       -0.10843813950279        1.01559489253371
C           -2.07583713576536        0.98455768334997        0.48667960048596
C           -2.59918885272321        0.67710674102592       -0.91480713829718
C           -1.49547932190692        0.51291094920209       -1.96464234564601
C           -1.42805112684752       -0.85639829688296       -2.64106348788489
O           -0.56606612383490       -1.00883314555280       -3.53681363440347
O           -2.21302218403314       -1.77630749765761       -2.28432772711099
H           -1.10854013222182       -0.03174639818840        2.05228465934509
H           -1.67982018856924       -1.02520662354119        0.81646831497559
H           -2.92968999866329        1.13169954599899        1.14801560734951
H           -1.48423107642513        1.89977163780806        0.46748149876681
H           -3.26801396279814        1.48283698056949       -1.21569461248333
H           -3.20014826640192       -0.23324198655067       -0.89125948021706
H           -0.50722100674785        0.69138173431353       -1.53875976386274
H           -1.60646412417050        1.22891696377835       -2.78146073770173
H           -0.30317869749736       -0.08235498727894        0.57673016988169
O           -0.11993958231066       -3.78584762550555        1.24268532370501
H           -0.33544565914793       -4.70805564835746        1.40854472679035
H           -0.93991149590478       -3.37024987259914        0.90283609953175
O           -2.39197463151429       -2.58176082023589        0.31684346019744
H           -2.35514531692294       -2.38532227109114       -0.63735135831241
H           -3.26508725354334       -2.94353261848661        0.49452948105378
O            1.19252156082549       -3.79499870884575       -1.20539832391971
H            0.86165133524479       -3.75563948537682       -0.28588591731686
H            0.41452106918793       -4.05945356415081       -1.73797128188283
O           -0.87121368827589       -0.20106572997482        3.71768094240547
H           -0.27058621104047       -0.97442515224686        3.73883478617876
H           -1.60383025572456       -0.41380703496534        4.30188888452641
O           -1.10565750588167       -4.28100209531040       -2.63576208045199
H           -0.88772536707276       -4.28668362226622       -3.58056006016267
H           -1.55790893765720       -3.42145046763817       -2.51181433763709
O            1.85728752851136       -1.33741087976050       -2.12290559922477
H            1.73363046556564       -2.25859974326511       -1.79393213241432
H            1.13362277697646       -1.19326335844813       -2.75238635594524
O            1.24331936501024        0.39606715499585       -0.15101254846501
H            1.55748733979166       -0.22763902986972       -0.83984821121701
H            2.02340986569915        0.73131912183687        0.29752264386403
O           -0.49506704326834       -3.22978056216255       -5.15574306397366
H           -0.53299088062794       -2.40015979092497       -4.63254389449709
H            0.31944198785644       -3.18384263180022       -5.66522098378124
O           -4.92156751186084       -1.43417776137146       -2.89230097247138
H           -3.97875479057321       -1.60448551858131       -2.72752369349705
H           -5.10510660698108       -1.78044594581780       -3.76999307232482
O            0.67434383253303       -2.44165597037527        3.52608506882202
H            0.40329404016797       -2.91103303026743        2.71211297374011
H            1.63469429026570       -2.43386114212672        3.52203888354404
