163
 energy: -275.734866436618 gnorm: 0.000708166431 xtb: 6.7.1 (edcfbbe)
H            1.27895744065181        0.33052433173812        0.19358274067616
C            0.24416947531218        0.12812386615980       -0.08139352067257
H            0.19085586519226        1.31585089551781       -1.82020152406558
H            0.19864210245566       -0.78907131268325       -0.66451843766238
N           -0.27971220649683        1.22605017907273       -0.90233256373909
H           -0.55282872376367       -1.04912985978062        1.54354523220270
C           -0.61237496712630       -0.02889236781897        1.16929722608787
O           -1.15835471262843        1.29385695688837        3.07049182570751
C           -0.21292032234435        0.81792652630500        2.36759002252790
H           -0.17577531460865        2.12855394356338       -0.41021605872604
O            0.98788364067758        0.98287715688744        2.65711413579978
H           -1.29619759093124        1.09554858883135       -1.08247905909489
H           -1.65910437428983        0.16370424567969        0.94150582891150
O           -1.28722904641389       -5.99087381572419        0.14892426135765
H           -1.10679448573549       -5.81341413142535        1.09896892520730
H           -2.21547466254930       -6.22770859492220        0.08673026072986
O            4.36984248897060       -4.41465441586477       -0.17950217938368
H            4.25795459317344       -3.66746573691465        0.43121126777317
H            3.76857833799345       -4.21129557449511       -0.91170680421328
O            1.03356880071546       -3.11071219694812        1.80499327041780
H            0.63369397994834       -2.51545270596416        2.47089698641770
H            0.48859035565914       -3.06379772180020        0.99069253725279
O            1.48640993810620        5.28420602648165        1.60265207191829
H            2.28174929161738        4.89122410288550        2.00190428258731
H            1.21661763625622        5.99863654294999        2.18444505766237
O            3.80568617497640        4.21866810035925        2.77751050267773
H            3.71717404660578        3.91436812829227        3.71102025258138
H            4.67099702763000        4.63147599693691        2.71095181284784
O           -2.51002086094924       -2.83220420820900        2.08136173100695
H           -2.74286593250296       -2.00555857437568        2.54364490412250
H           -2.50358638628734       -2.57653163563284        1.14331888014328
O            1.35467341333674       -1.03414658058795       -3.20578777088303
H            1.93547688253072       -0.25869495109128       -3.07434360124015
H            1.71220738490256       -1.72192281021177       -2.60893753121572
O            2.89244642909417       -0.80879177310818        3.50020599388571
H            2.49614897686780       -1.58887252585965        3.92844597919276
H            2.14904521916679       -0.24767714881978        3.20535875873243
O           -0.76933457291888       -4.93779340776202        2.57697961077814
H            0.05712680684924       -4.46906185925075        2.31892263638249
H           -1.45096722582815       -4.23871056753576        2.49479893739995
O           -4.60960976438335       -0.91094621586438       -3.78110641458534
H           -3.96819942807041       -0.18554606662932       -3.97298329037332
H           -4.07511839487630       -1.71697750216732       -3.86926452941080
O           -0.36180561924232       -4.40630679162034       -3.17141468941630
H           -0.05329055246476       -5.30786006731753       -3.07203799527174
H           -0.26504571758294       -3.98541281300759       -2.28934276667302
O           -3.01142371218887        3.28992569383244       -2.98839745232725
H           -3.13739920112553        2.66701866902223       -2.23971315799433
H           -2.24621954892656        3.82355656567943       -2.71691226643252
O            1.88609366220846        2.92899424228506       -1.07079564815695
H            2.32178873517182        2.76789173838932       -0.21613697981544
H            2.14649239721601        3.80158877131659       -1.38120241203188
O           -0.34005325581344       -3.52515574009329       -0.55101037893276
H           -1.14362818380786       -2.96578113317109       -0.56667915771291
H           -0.64345542592950       -4.42349532724358       -0.31964745803010
O           -2.81715979495510        2.73882563769258        1.42136244464073
H           -2.13289164262963        3.31787792248155        1.02891767988708
H           -2.31152897419184        2.19152248132926        2.05160221839105
O           -1.12215235641508        3.63268602286678       -5.26430982049631
H           -1.98758725138123        3.76951293826499       -4.86405529245664
H           -0.64190354369542        3.05379900471575       -4.62624928568712
O           -0.17825190635766       -1.63960119440201        3.80595698478320
H           -0.87234695918149       -2.21345005595276        4.18292781323340
H            0.25318828279770       -1.23538339051471        4.57244921090004
O            1.18065098285335        3.99462010471761        6.45391828405681
H            1.03239121209185        3.87948807664634        7.39674182490658
H            0.48446274044195        3.47718236323432        6.00352178855337
O            3.62141865735110        0.60175475433097        5.63928022909265
H            3.47459011167813        0.13782183993546        4.77689188078875
H            4.46347407718723        0.28373581736164        5.97585712851133
O           -0.50737311573180        4.32037256894996       -2.26277209707244
H            0.25930352186783        4.87242358909633       -2.46799923520894
H           -0.24713727523634        3.43647904246134       -2.59710774378585
O            3.40457818063985       -2.06360959854345        1.13414480674814
H            3.55127239062054       -1.54861681950827        1.94643148958955
H            2.55871585240390       -2.53139886120094        1.34104149281672
O            1.18543241827833       -0.76485339235724        6.15687640110259
H            1.56697914194072       -1.65393297348904        6.02880658921805
H            1.93861891766251       -0.15445594892527        6.10152876434314
O           -5.07527889177407        0.98305123119683        1.79554081108403
H           -4.52133620455369        1.76774470493137        1.67796619662984
H           -4.53269651847494        0.38053889247116        2.33638963631880
O            4.36774977593383        0.17931039582048       -0.29618404268016
H            4.11343402747925       -0.66209118144469        0.11421662200602
H            4.00523819680775        0.86860699762331        0.29191818474706
O           -2.20480861528724       -3.09975931048891        5.04631140962311
H           -2.75240777148627       -3.33002257024097        4.28698937526025
H           -2.65802457783960       -2.36604067419027        5.49967361925008
O            2.12857117860840        5.16777309988125       -2.87019088130987
H            2.57024232686590        5.96147214719516       -3.17493932962978
H            2.38885723925796        4.45131882392373       -3.47899000826569
O            2.85560771489055        2.93509750644015       -4.37397958875226
H            3.00257814290791        2.65939384636598       -5.28022920004211
H            3.15514830514866        2.19978914046757       -3.79665534235387
O           -1.49478515126647       -1.88369535378059       -6.20730119578003
H           -2.00732318262445       -2.20252726896015       -5.42711637762439
H           -0.61240921850484       -2.29363356897677       -6.07972631051385
O           -0.53659971977000        3.76751132801135        0.35398186240413
H           -0.56862132432223        4.08719868964929       -0.58020828293759
H            0.17540073833570        4.26690835803330        0.77772661422901
O           -2.67691195927280        0.91065408920984       -4.32242587764202
H           -2.64635232107784        0.95549952101455       -5.28819185968634
H           -2.80079924772313        1.81359331755848       -3.97406264073363
O           -3.22076007619724       -0.46626233224125        3.33053146472349
H           -3.36656126739089       -0.55884433567341        4.28593735642917
H           -2.45772307649212        0.14329435078440        3.24634333059486
O            3.01457499806016        1.00319877529363       -2.51464604070430
H            3.64765641776803        0.62970817573636       -1.87668192165244
H            2.51132972347343        1.67305958969090       -1.98291160914313
O           -3.34612499188819       -0.83859393281133        6.09778601618988
H           -4.04446752967827       -0.72555701999595        6.74674112570866
H           -2.55066525863580       -0.37283138626036        6.45730263643933
O           -0.93129340527411        2.60693073380644        5.34500857578200
H           -0.90495139660990        2.12038490358848        4.47710219432888
H           -1.68355415247758        3.20241280202053        5.27660140552194
O           -0.61796380088527        2.12630292215301       -7.47613999228597
H           -1.43749263706377        1.60626879324597       -7.53845566188253
H           -0.80073752628720        2.79952201194636       -6.78542217294794
O           -4.86263746285737       -0.63302072076544       -1.16286243318847
H           -5.76068099409869       -0.44493620272393       -0.89053082286975
H           -4.86090303126039       -0.74094679036347       -2.15141391923422
O            3.60867927422081        3.35324271307808        5.30360381500309
H            3.60267283402962        2.38112186511860        5.40440709162603
H            2.77950484714043        3.65688464108294        5.71827523299894
O           -2.75058893723960        0.37603843706223       -7.09088806853044
H           -2.29724017677340       -0.46597957806531       -6.87775749890382
H           -3.54289086468082        0.14096654005522       -7.57691265304177
O           -2.52977586460787       -2.76363036603317       -3.88757349772598
H           -2.04274131595901       -2.03177108112643       -3.40391390316362
H           -1.99553610564513       -3.54955931150900       -3.71110858504310
O           -1.18295336533784        0.42773763497855        6.99810937320855
H           -0.36852933672627       -0.07564544612205        6.82479197887474
H           -1.09753259675594        1.23343675103965        6.44962302729233
O            0.30004808184098        2.02179666652626       -3.53357052944238
H            1.17744126062257        2.38015498212356       -3.73593738294099
H            0.19011356803735        1.27622048909438       -4.16977903550961
O            0.81457921938151       -2.85625743450756       -5.19879315485139
H            0.44071405404296       -3.46016416480064       -4.53099471682264
H            1.10320926293836       -2.08117125178074       -4.67352602921857
O            3.03856068755169        2.06221979425885        1.24826002617277
H            2.31162485213485        1.67085149883707        1.77004464837261
H            3.38639215437237        2.78842158495310        1.79156548437807
O           -3.03441007855943        1.41880042065503       -1.00678696652467
H           -3.70181124843314        0.70913928785408       -1.01847800354082
H           -3.10690144389868        1.86383035826063       -0.14494455327456
O            0.19086673289550        0.31750719420613       -5.54288967900191
H            0.05784469589446        0.91154233411030       -6.30212619499067
H           -0.46160067202842       -0.39299106608392       -5.64856729793625
O            2.17833979825388       -3.08972775445036        5.08586492189611
H            2.92227245513651       -3.67338450885020        5.24982713553951
H            1.38213344836508       -3.67195649207075        5.07521354091204
O            0.03713472187710       -4.72582140574411        5.17917720573745
H           -0.20456192407937       -5.00573070865655        4.27084606321152
H           -0.72871317825515       -4.20309719531714        5.46339898850059
O           -1.27149764157341       -0.76918623206846       -2.72426890768538
H           -1.67043800794974       -0.06689604664823       -3.26921703757040
H           -0.32512204031990       -0.82826682803140       -2.97877452826945
O           -2.46899145495072       -1.86574967546081       -0.56760536724180
H           -3.40342440587912       -1.64534119850162       -0.67558954027243
H           -2.02790599420205       -1.36340206086105       -1.28876576956454
O            2.21957188177245       -2.83296969406834       -1.38432376607859
H            2.63639407498527       -2.34709254491765       -0.66022527871369
H            1.35537469274916       -3.12169271097407       -1.04104535528321
