166
 energy: -278.893710137624 gnorm: 0.000298507818 xtb: 6.7.1 (edcfbbe)
N            0.40815894379842       -0.07159602943759        1.72932245955788
C           -0.03514564234358       -0.31650923858100        0.35138530061656
C            0.96559138944980        0.30212401167048       -0.61646565098165
C            0.59407003417730        0.09204969541050       -2.08094876492189
C            0.96578559928517       -1.25330062301958       -2.66529728217874
O            1.15118142207064       -2.24458921001401       -1.91912467998998
O            1.06968373975839       -1.33044098017934       -3.92671342593474
H            1.36373152902167       -0.46777582907523        1.84921672808980
H            0.46953198635772        0.94830633639209        1.92273336059696
H           -1.01473787327990        0.12832242143698        0.19338328167955
H           -0.09491570003429       -1.38727993233195        0.16969541236812
H            1.95362710585145       -0.12132254475368       -0.44228580148053
H            1.01926921077169        1.37596169733146       -0.45306331516602
H           -0.48443406550995        0.19374363890040       -2.22640325307395
H            1.06663887170864        0.84994378931187       -2.70550462053428
H           -0.18207483921486       -0.52207977498660        2.44654681081030
O            5.16567706989627       -1.89974311111513        4.84867172188908
H            5.00840895171433       -1.74984571764143        5.78448841239462
H            4.92885756990674       -1.05848284375011        4.39963637645599
O           -3.47163300842058        3.44603461259669        4.77525725445160
H           -2.97523310320075        2.58548687640642        4.73619023201174
H           -3.62912929431914        3.63843817851817        5.69943805541593
O            5.39161992304626       -1.42575845950650       -1.92272961865967
H            4.75022809607231       -1.89116844443587       -1.34268057073426
H            5.06368058782993       -0.51056968502742       -1.94997211444614
O            3.45335831380012        1.92842309990100        0.74390415171372
H            2.61467324730915        1.91375030601531        1.22959422237350
H            4.12023930449427        2.16699968061180        1.40822215614922
O            0.79655781643255       -3.75711442127430        3.96026635264503
H            1.75356116717446       -3.65212539096206        3.78620268991092
H            0.68990424145905       -4.58563997619022        4.42955839030338
O            3.04625777866584       -4.36410332651671       -5.16579671704268
H            3.75870322190411       -3.72697500652609       -4.97135511095954
H            2.74824813339336       -4.68660839949307       -4.29821338426066
O            0.59435060725510        3.98922735448379       -0.24794864115311
H            0.17896480355163        4.84934750351935       -0.14915374639283
H            1.53765215700281        4.14945027812940       -0.48780250130878
O           -2.52067982093736       -0.38371803913609       -3.63168353605034
H           -2.69270211084942       -0.61089357220844       -2.69535328174532
H           -2.57835019976448       -1.22101123335366       -4.11953862647248
O           -2.86319100407768       -4.02183251212818        3.43400401343755
H           -2.11161091921321       -3.78365025655954        2.84156339270170
H           -2.98144973998979       -3.23023895779268        3.98411047046402
O           -0.86133910926862       -3.07923623197952        1.86588652804494
H           -0.14703510342934       -3.31272088799694        2.48307965426720
H           -0.68772437550171       -3.54610381789596        1.03487854399259
O           -0.39881939624372        0.58884876953524       -5.19990138122761
H            0.19058685604949       -0.11170876298288       -4.85731473394736
H           -1.23908965450644        0.42987404030739       -4.73594811672124
O            1.34622492328532       -4.80507340999526       -2.90003022302466
H            0.75461414537707       -4.74523854964020       -3.66585487290863
H            1.42228490675081       -3.87487341238541       -2.59534830098447
O           -2.89131716064022       -1.25972469230532        1.65758040356825
H           -3.58299514778418       -1.95295673721073        1.53637659206128
H           -2.05792209071016       -1.77021800356764        1.69069860348126
O            3.43226026304290       -0.04820914347123       -4.50977463704751
H            3.63811037869581        0.22940417122330       -3.59843089384653
H            2.55749139290858       -0.47068545630495       -4.45477596916869
O           -2.34244504021575        4.90785731602715        0.52541176977559
H           -2.10376690160644        4.12465762306713       -0.01672911047521
H           -3.32079830245084        4.90245662480226        0.51908711198495
O           -2.42951810523500       -2.77227147078659       -5.11574824847018
H           -1.51311977264220       -3.09598951552479       -5.16177699513786
H           -2.73535367397176       -2.71683868958718       -6.02578116141621
O           -4.44779728917194        2.14859481510379       -1.14155101530540
H           -3.48519306641900        2.20449848157464       -1.02097158232309
H           -4.74143935112557        1.45240953144303       -0.51003611138138
O           -3.21847798312246       -1.29621044309972        4.30750985879557
H           -4.15705418040093       -1.29879223697375        4.49848224325009
H           -3.13490489341825       -1.19969773674765        3.31769598413457
O           -2.28043491332871        1.82985002102619        1.68500897411842
H           -2.12188175404282        1.90782948610861        0.73483638560230
H           -1.91895357204340        2.65684090901720        2.06263281155364
O            2.57436186873289        3.85473883880692        3.65745715897517
H            2.25917454488460        3.63109602261777        4.53788930173529
H            1.95300224771065        3.38821711804165        3.04109126980278
O            0.02163068841551        2.86725749064996        5.10484897011551
H           -0.69991390948538        2.21812253908740        4.98677363908897
H           -0.24254989799148        3.61921582908142        4.55989238914207
O            1.64171821947437        0.77490449723868        4.25971042380672
H            1.17813346199534        1.55844541581014        4.59463439486690
H            1.01108253856707        0.04315688403443        4.34795876853783
O           -0.32869543103020       -1.22724131607650        4.15875950539277
H            0.10054272272175       -2.09504510146959        4.18720821310170
H           -1.23612862291225       -1.36621656118854        4.44865955932667
O           -3.15480639423624       -3.70860015317978       -0.99963023861037
H           -3.14956328238142       -2.73161023727346       -1.12907139310780
H           -2.21624839256547       -3.94388618565570       -0.87968314264543
O           -0.42774506180591       -4.09869296167527       -0.64669110798025
H           -0.02169536137190       -4.89954588218734       -0.99220090514767
H            0.06123911708712       -3.37088902924310       -1.07364459520376
O            3.91453842447126        0.97730639498791       -1.89698081561759
H            3.77724654882938        1.17908341171784       -0.95408428150245
H            3.69690883658148        1.81329432492929       -2.35856047307338
O            3.19035541238789        4.21737943373277       -0.70745984534635
H            3.39619387546024        3.38454523984642       -0.22053664674011
H            3.30592511994989        4.00699935778888       -1.64631615218194
O            3.46312893980784       -2.54946477942603       -0.36772102229471
H            3.28373895349213       -1.97593097258544        0.42611236802160
H            2.65356827276652       -2.50583251029186       -0.89985982440055
O            0.26664647666179       -3.55821877755675       -5.17832972620136
H            0.59474154066766       -2.74233838927239       -4.73156013534201
H            1.04091905642098       -3.88635657614150       -5.65688500584691
O           -3.20771976567519       -0.99934070588517       -1.04874440035273
H           -2.93255470506389       -0.96193665207853       -0.10290092064240
H           -4.14618571483632       -0.78545936974207       -1.03378498600065
O            0.49180691744311        2.85398040690803       -3.94527679976316
H            0.26219685836762        2.09654292789517       -4.51642938774857
H           -0.36155777182230        3.28163068226507       -3.76077803320993
O           -2.11881804659879        3.70920941370589       -3.46123169486843
H           -2.44262605616816        4.57260353567861       -3.72455379379155
H           -2.80985969077867        3.05791889294362       -3.73490135423029
O           -2.06587688259467        1.21875278787235        4.37635765104135
H           -2.45487470308050        0.35483172281499        4.58449608588831
H           -2.01687425395305        1.23582227194785        3.40131543786012
O            3.13378710667808        3.20095587132115       -3.28748698888677
H            3.58212746712265        3.10059868719851       -4.14395063848165
H            2.18131200684890        3.13203100122653       -3.49487970575550
O           -5.07376073259709        0.36693459356840        0.78217003048318
H           -5.40550581785599        1.00648358565157        1.42632292513671
H           -4.23802409404182        0.04691593687980        1.16563420367226
O            4.43134397042740       -4.59939563296184        1.17063543857502
H            5.35859712546695       -4.69428208083537        0.94328222676582
H            4.05810695567875       -3.96431703696491        0.52316840251641
O           -1.46561981915004        4.12859707825305        2.93355271814780
H           -2.22068443598061        4.14655595301809        3.54189584938770
H           -1.74649363942665        4.60761088705017        2.12271345641893
O            4.21018872812161        0.33785257005014        3.63888576481477
H            4.61636399963034        1.19520853496170        3.44505137261269
H            3.29900680233001        0.53885047181738        3.95643169631664
O           -4.08654066013659       -4.49639198496678       -3.50009605988912
H           -3.81873344408285       -4.30615199753498       -2.57824184185619
H           -3.53249242790126       -3.91840560301610       -4.04894018548522
O           -4.05138643079915        1.90133972955795       -3.83976482934054
H           -3.57544562877161        1.04937128642683       -3.86863749355315
H           -4.38947251462548        1.97064550412277       -2.92152364156324
O            0.76839663000499        2.66355137973749        2.05946909749771
H            0.75305649987896        3.12616059015245        1.19439139609020
H            0.02115073794863        3.04646557032869        2.54423098000260
O           -4.53441691713853       -3.33623928351129        1.38163632799215
H           -4.08256077304479       -3.83252228468607        2.09467346439488
H           -4.17608238211215       -3.67695262156239        0.54149126705586
O            3.39840949934365       -3.39059544457031        3.39801895455442
H            3.82634300792345       -3.92459063493234        2.70360163974221
H            4.10665238463753       -2.99103718806183        3.94146446977732
O           -4.74866180013013        2.53159001331153        2.47986318062920
H           -3.85584217799718        2.23180873863798        2.15547035636016
H           -4.56444229348926        2.93357334358936        3.34044036471578
O            4.89806968313201       -2.39110933463505       -4.44545938456691
H            4.42648636989020       -1.57296234235182       -4.69111255076856
H            5.21455441536379       -2.20142193926799       -3.53626950244759
O           -1.65209815094595        2.64341399785145       -0.95284778289909
H           -1.79865282124830        2.95532304320930       -1.85983966347958
H           -0.72357963520742        2.88331555600047       -0.77192496555079
O            4.92433881435868        2.89438267559743        2.87366986825763
H            4.09359340987430        3.32949516835888        3.19904683575816
H            5.60866125574562        3.56405922873097        2.86966480711149
O            4.23979237535105        2.32563701460200       -5.67220229900865
H            3.89783400549203        1.44271294063897       -5.43371103274876
H            5.16418732962926        2.19834156895042       -5.90196654761167
O           -4.99484400650882        4.32341209241167        0.46328015767208
H           -4.95224643584018        3.67232429857464       -0.26592300425366
H           -5.03745150649490        3.75690848843034        1.26718476528329
O            2.90127118981122       -1.21699907117990        1.85277957869362
H            3.50100082314829       -0.57829534899308        2.28384173994801
H            2.94030372252966       -2.00686240475279        2.42879061297689
