34
 energy: -56.702440190403 gnorm: 0.000207640457 xtb: 6.7.1 (edcfbbe)
H            0.64060298182455       -0.48509288769339        0.48016488583582
C           -0.30414550985278       -0.17079482864269        0.03545384182643
H            0.67464687349138        0.83668950540142       -1.51420815906891
H           -0.71801581831349       -0.99753863069642       -0.54019906724882
N           -0.06552919729459        1.00219062614410       -0.83173417508861
H           -1.47259735555087       -0.64892282769017        1.78315354938167
C           -1.27528711071857        0.21102844562609        1.14465862244136
O            0.07020828459969        2.15808602339060        1.54643653486928
C           -0.77160912345824        1.35820906850083        2.03274926659939
H            0.19826986941695        1.75885727360049       -0.15930351088049
O           -1.24556456686511        1.45831172511392        3.18200331545234
H           -0.94688743161394        1.28246159128027       -1.30971909202608
H           -2.22875625270965        0.53723904962463        0.72393428498880
O           -2.51052069251963        1.75477291007328       -1.92619310491673
H           -2.80941293871427        2.66735263886036       -1.88800910122933
H           -2.98197977731832        1.32272083442654       -2.64494724173683
O           -1.35384046681041        2.24229031418962        7.14749816685794
H           -1.12293016460602        2.79950902522883        6.37848091843103
H           -0.55225894491653        2.17734869465870        7.67646369036618
O            4.00444991142129        2.20592121792175        3.40550921802980
H            3.82000033283438        1.60743578205694        4.13536253408489
H            3.21086177265969        2.76523975273403        3.31326869587964
O           -2.17256938354417        0.06554460748559        5.50434872868638
H           -2.01969662805757        0.74428992193626        6.18520884686825
H           -1.91036322468300        0.49334538816386        4.67415728264583
O           -1.34957444726761       -3.03172165348074        2.12013288107124
H           -2.20880676224923       -3.42887122014898        2.29311138214696
H           -0.74531019756216       -3.38289283732282        2.78097553326843
O           -0.57186876807198        3.53530682621739        4.82975483496369
H            0.32366262644972        3.73389827593036        4.50913135650794
H           -0.88764093588052        2.82422245080974        4.23151677335150
O            1.66359996644448        3.72582896999163        3.07934678703550
H            1.07882894951134        3.16052656354421        2.52312418040613
H            1.78324612986982        4.54221840264389        2.58298834013269
