34
 energy: -56.701990356993 gnorm: 0.001272764993 xtb: 6.7.1 (edcfbbe)
H            0.71708020045559       -1.53827098293928        0.30811715307108
C           -0.19743498423185       -0.98817636040344        0.08054434500888
H            0.61272749154807       -0.49058138468771       -1.77876705515596
H           -0.98267278569579       -1.70073917177063       -0.17518291638906
N            0.06788202189248       -0.05440838300243       -1.03565347261971
H           -0.87891378900412       -0.84683385972915        2.12325011628973
C           -0.61241404851114       -0.18265958871830        1.30556689496475
O            1.13704591196972        1.39592770326692        0.88476613810181
C            0.49946617390995        0.77509763043635        1.77133751516743
H            0.61149610376281        0.72596699562390       -0.57436621835441
O            0.70151667317967        0.89893260324699        3.00094496102906
H           -0.81561107018637        0.32550614611382       -1.42663906368499
H           -1.48492466012386        0.43238537293997        1.07311419408223
O           -2.23486983254194        0.92096679815032       -2.35746364721246
H           -2.68580081049355        0.32079055424561       -2.96164720486807
H           -2.09162561894671        1.74886894451500       -2.82748447044457
O           -3.54289681612369        4.13399734770438        0.57736655627901
H           -3.49775930538150        3.16168299838390        0.49371881275506
H           -2.74825949476747        4.39193725226714        1.05278533528050
O           -3.33992403839535        1.37445142756344        0.18362299403085
H           -4.13810105896447        0.84999368025453        0.29968011847435
H           -3.03552219244798        1.21658464991718       -0.72944007774840
O           -2.25406328172310       -3.39359883029338        0.64984780533681
H           -2.24900940577884       -3.15730515258109        1.59296269450753
H           -2.25460577590844       -4.35497313714941        0.62123580485035
O           -3.23202542581774       -0.58535742960844        5.00131388184782
H           -3.54050444566663        0.31531268158265        4.86721279393018
H           -2.25942447597620       -0.54253825850392        5.01026130643460
O           -0.42609976834759       -0.79329674979980        4.74582319203629
H           -0.02395061980374       -0.14591456823208        4.11694333349530
H            0.17349371370852       -0.83230270745910        5.49654123075973
O           -2.14893395024286       -2.72662421790734        3.40049794806068
H           -2.88414920649391       -2.25248173998347        3.81542128488507
H           -1.36122042883613       -2.34609526344047        3.81625971587567
