256
 energy: -431.763207284363 gnorm: 0.000546145767 xtb: 6.7.1 (edcfbbe)
N           -0.40793540141721        0.46579463308447        1.63240154152386
C           -0.39060471764776       -0.05786450477268        0.26126116953963
C            0.16368982885392        1.00326808479286       -0.67791098359411
C            0.28872236455251        0.49462908463705       -2.10090437671651
C            0.49972980619132        1.56509598392816       -3.13633443228651
O            0.63379591737150        2.77626327183975       -2.81929139843387
O            0.47435939323039        1.19223410153086       -4.35091653346921
H            0.51960188849566        0.86594199986662        1.85095862293461
H           -1.08515629476909        1.23067445336939        1.76673162745452
H           -1.39350683839072       -0.34408531413877       -0.04574830608460
H            0.25829556482487       -0.92819227316590        0.23237157651301
H            1.15429189984373        1.29939857213971       -0.35041482024600
H           -0.47461590947396        1.88037986212562       -0.68074888914633
H           -0.60724990987197       -0.04014491319521       -2.41031689348172
H            1.13674855479414       -0.18330633833562       -2.18983662493315
H           -0.61271044227016       -0.30906401307151        2.29265867770296
O           -3.21987575439986        4.40005450854284       -2.19860727817245
H           -3.93089973309635        4.56265446039108       -1.55171071539121
H           -3.36523503979208        3.47410075907122       -2.50310392460789
O            6.26501767323456        0.47392288405210        4.59015802418238
H            5.84845674930976        1.15286883313039        4.03275456159487
H            5.65393198639634        0.32274343097059        5.33300264400016
O            0.25468979587889       -2.72728354921883       -2.34842794602046
H            0.85303266882320       -2.36325019066609       -1.64853099308384
H           -0.65897959772786       -2.66796480724068       -2.02058157519624
O            5.97885128688572       -0.09621697100179        0.81240230730007
H            6.76488453625436       -0.05766757896442        0.26743207679348
H            6.13523679623174       -0.75969538593895        1.51291682502431
O           -2.61515970509602        3.73996672905170        4.72063699355643
H           -2.57595633253774        2.75070309618361        4.73567497220801
H           -1.86695998188941        4.01769866413458        5.26186319843101
O           -3.20264944477863        1.46065721225474       -0.15810474467474
H           -2.48857528941361        2.12186093274801       -0.11938684641172
H           -3.96011946956061        1.89906972105453        0.25554421802711
O            4.04467312481414        3.64576574372879        0.47224839074911
H            4.03635718773707        4.53372816052590        0.89186722028597
H            4.45350144780462        3.73510734479538       -0.40221477891110
O            1.35018094108063       -5.74423049619182       -0.56524809149395
H            0.39622570294125       -5.96695202317787       -0.61283081502835
H            1.56638258882012       -5.47278767915070       -1.48424463988033
O            3.79913292043273       -2.77263972384557        7.02943109798029
H            3.34411752544829       -3.16490437222807        6.26045436256039
H            4.02444717491786       -1.85970003390315        6.74138235973719
O           -0.37510940243899        2.09487106433797        8.30996130924206
H           -0.33086063034215        2.63994765384348        7.48358539635985
H            0.46740762401649        1.60467756167107        8.32612766449943
O           -2.21803716811558       -0.51190872817779       -3.60719935375633
H           -2.60176666757979       -0.78301904548779       -4.44852810698620
H           -2.61660657024071        0.35536812803273       -3.38642939954003
O            3.55583746842373        0.00618985042967       -6.49782591114526
H            2.81006028829461       -0.46192589198083       -6.92538777401129
H            3.21735738367531        0.90903878355219       -6.35083562068889
O           -0.53586446135359       -1.77465941623814        3.13585456118469
H           -0.62103225718230       -2.66102047115128        2.77987948467431
H           -1.04525840130513       -1.74701123403221        3.96676962965645
O            3.62509273305088        5.92804436589050        1.85567095878102
H            2.73246660805270        6.17939783841561        1.53151674902715
H            3.44134688332500        5.38696972878911        2.65024885901225
O            4.55429370529374        3.59952573923317       -2.25959736547170
H            4.19800117658088        2.68211205310648       -2.29275149728590
H            4.00688127030168        4.08114721293192       -2.89544970246621
O           -2.45068328946220       -2.39804735261087       -1.79691195024391
H           -2.58323887523065       -3.21723846775167       -2.29031688905778
H           -2.35868318302402       -1.68806049948873       -2.48327544466034
O           -5.56999161904364        0.07531242767241       -3.18104459409127
H           -6.52582337607593        0.11169477833523       -3.13362195828547
H           -5.26907209450414       -0.39700114207169       -2.36328177870458
O            2.17788107280423        2.37912216468593       -6.04177077847246
H            2.47395250422441        3.13040979485292       -5.49403403059173
H            1.50081972532373        1.92749040774885       -5.47947608076150
O            2.23594635127604       -3.55008307400813        4.90746249026335
H            2.22786425112303       -2.70749210068517        4.35736464725170
H            1.80023548416221       -4.21651313276916        4.35238418402182
O           -1.92634752003745       -4.58390204892245       -3.48639247051151
H           -1.99719214214647       -3.91220267357593       -4.18494730075798
H           -1.27640346142184       -5.21078994003754       -3.84171907257532
O            0.26849785899617       -0.23418519916480        5.99115581614088
H           -0.55112887113333        0.02435756072765        6.44327693558204
H            0.26881560361633       -1.21377755414915        6.01729007496116
O            2.47151565501250        4.32345827183048       -4.10537728130470
H            1.97828741494106        5.13543374907413       -4.31980976445579
H            1.82517669272639        3.76871880197275       -3.61296195066122
O            2.04712238848248       -1.43183542949791        3.40132344478664
H            1.07606733783325       -1.51944884980087        3.22013246117004
H            2.54243184363800       -1.72603154004861        2.61566737438658
O           -2.51630003140186       -1.19851869610079       -7.69928936500257
H           -1.89443935892235       -0.46315145677975       -7.84779107230123
H           -3.26215221477661       -0.79808239204784       -7.22512165391565
O           -4.03129678462909        0.10596650997881       -5.71766582568583
H           -4.62662021639211        0.10530279485837       -4.95290877410487
H           -3.43278481578743        0.86510355883199       -5.60608434710116
O            0.60543144118819       -1.49711934786291       -4.62823885465245
H            0.44121594189502       -0.53959413516382       -4.49004738715128
H            0.43502832229570       -1.94413717780555       -3.75010787471806
O           -1.88830071705193       -4.11993124996229        4.56562736278954
H           -2.60881325189888       -4.46271540706265        5.10533694082371
H           -2.35696070181130       -3.59993460395683        3.86168727708516
O            0.04158809744616       -2.89601862523367        6.27183404416169
H           -0.68220109038116       -3.28571689243612        5.74914790569289
H            0.87229775933559       -3.19591659781466        5.83135908603586
O           -1.60369245271226       -3.55038660940130        0.53264440335842
H           -1.81787271099645       -2.97355551183797       -0.21772663686861
H           -0.63313273712898       -3.45317575792189        0.70979512769978
O            1.88526083326049        2.08423699746451        1.95498311751370
H            1.61735753415234        2.76253613425530        1.32043928324593
H            2.53465212383979        1.52845410877371        1.48719491579079
O           -3.21364105213942       -0.07221788000675        2.15780658524977
H           -3.08107883787910        0.46093598302589        1.35518082194680
H           -4.15332449298575       -0.28546274944672        2.18146483887252
O           -1.45173785500801        3.75203129879281       -0.23043752083351
H           -1.97282813052436        4.17841989628812       -0.93077879040599
H           -0.53597724340635        4.03582453377736       -0.32424213115137
O            1.46383905177405        3.78367880188877       -0.34035927600347
H            2.42680943618211        3.70612787869508       -0.16306977583700
H            1.32215579728602        3.43354418620749       -1.23353377236268
O           -0.09649599074695        3.46028131111940        6.00410549996364
H            0.83042921638135        3.68466643465126        6.15384739666356
H           -0.03132724001570        2.77390726537296        5.27095998750745
O            2.78778038429127        4.05784772225324        3.66968189225785
H            2.95762679381419        3.75077021525769        4.56755015231935
H            2.68571909044474        3.25066248310572        3.11408369907727
O            3.30171275143284        1.20892168139153       -2.23819101345830
H            3.43726846880903        0.41687817563084       -2.78100986686620
H            3.29936789968212        0.90210422873558       -1.29341723387531
O            0.41276669436444       -5.05655982993613        3.46748962138901
H            0.39345720760565       -6.01244408960795        3.44996199336326
H           -0.43067628877224       -4.76686901728529        3.88058405465593
O            1.92574374206722        0.50069983505177        7.88645918626515
H            1.37044054847953        0.26530198893148        7.07937736234867
H            1.88634712276995       -0.32314593856131        8.40082194534457
O            4.16190903623501       -0.15554706781446        6.33883723167022
H            3.57886562395609        0.15153526663933        7.05398381875192
H            3.67959019991220        0.14188152117785        5.51334908048452
O           -0.00204566462129       -6.20734479213959       -4.77282681586756
H           -0.07271111290783       -7.14902726963401       -4.93889492148479
H           -0.22743440613331       -5.75679982791220       -5.61757973847778
O            0.19496175364618        4.57745030286500        3.07327053261959
H            1.10443136796374        4.51114478265334        3.42304730992087
H           -0.04416512868020        3.65653233030487        2.87442855552004
O            1.63670442705140       -2.15808972624826        8.56346065048306
H            2.46613557776102       -2.45809999126599        8.12809230201974
H            0.93297138560550       -2.45851317086353        7.96405175309640
O           -0.71394573532439        0.89377331705539       -7.73998355917024
H           -1.14309789764667        1.32822410478632       -6.97435769438088
H           -0.18672457239602        1.59239615075766       -8.16730119498189
O           -1.19167221441872        4.33639706509313       -4.14462524139932
H           -1.88564975131655        4.56143615994488       -3.50395039120202
H           -0.53551770611829        3.80415298105222       -3.64452242973088
O           -2.11344401017822        0.21521512073115        7.43769921475486
H           -1.62267613960187        0.91299544124641        7.91439946606004
H           -2.99078588469421        0.57333302483437        7.24463578377462
O           -4.57765778639075        0.81454872343751        5.93149130541730
H           -4.90305255246789       -0.06996022480616        5.69266302061231
H           -3.77198203880755        0.93105883512380        5.37918223706615
O            0.21232119146089        1.63727420557984        4.12749222361941
H            1.01205282455115        1.80050906878929        3.60420768710296
H            0.42934427953643        0.89233590005075        4.72262238816881
O           -3.13696593050930       -2.81159407544767        2.56360087060266
H           -2.63862744752990       -3.16817096678473        1.79619513293436
H           -2.88093286760681       -1.86448211782066        2.59736358981267
O           -5.46116568379793       -1.68508735750444        1.73182227858180
H           -5.36221380321695       -1.51478667100139        0.77968972947813
H           -4.73589526293937       -2.31308820325842        1.95069418571602
O            4.87086420483234        1.83713650501322        2.49004056522320
H            4.60623819841251        2.55812738857637        1.89305614034734
H            5.28625385974716        1.17984106252399        1.90751994759132
O            1.02439557440685        6.11441857153147        1.01108867035575
H            0.61217023591242        5.66865877620416        1.78987096911391
H            1.17534706091746        5.37977896314889        0.38361057618716
O            0.61874226289006        6.28712839334862       -4.79314944565472
H           -0.11535097892369        5.66429020781963       -4.59985468277476
H            0.45213217530197        6.63629277497766       -5.67178216606867
O           -4.90136662948763       -1.80357042537059        4.89838499805513
H           -5.18512693281512       -1.80315270784740        3.97799028227162
H           -3.90072901971125       -1.71972477892442        4.87669805113058
O           -1.70610592201976       -2.66406710054122       -5.53368998305464
H           -0.86517872890362       -2.23297912506400       -5.26239681306635
H           -2.01028773628117       -2.17762595404807       -6.32342703833654
O           -0.89910593465375       -4.85625652908018       -6.89447008381843
H           -1.27777225166785       -4.11134593667626       -6.36979894978009
H           -0.52863029061078       -4.41063776848396       -7.67626187196176
O            2.06855155138519       -1.93194733234683       -0.59616761597697
H            1.89383941839145       -2.50889360275752        0.17342247483483
H            2.79929245580795       -2.34558142852879       -1.08456552332141
O            2.96015184842064        0.86075386250706        4.22926750922391
H            2.57628588228893        0.01710135872263        3.87288959868945
H            3.62438023720604        1.16009443369931        3.58650431063075
O           -2.37397270593563        1.07636181012477        4.36784574803872
H           -2.72070689113654        0.79234105711975        3.48586449867865
H           -1.42428580962589        1.27533230225092        4.21299488016794
O            1.69002339044965       -4.81415998317346       -3.06854911882670
H            1.06563034059657       -4.06803787986509       -2.86914536005709
H            1.25300774328311       -5.33417609426324       -3.75640342653805
O            3.80604999267850       -2.31815395159182        1.59424906497824
H            3.89446440883260       -3.19048447975944        1.17593545528322
H            4.59815372302986       -2.18246883174561        2.12714716175316
O           -4.64099778363716        2.68423680289031        1.83350510951634
H           -5.07899470459105        2.81883630953613        2.68908467501051
H           -3.66650494431241        2.70914398220710        2.04917323694772
O            2.58479759770732        2.73530964135709        6.15138585436685
H            2.55183953142830        2.27074896029884        6.99271531278470
H            2.60918321221698        2.01412966344540        5.47979129016781
O            3.27083288775087       -1.03941526378470       -3.98011165199929
H            3.61183197782034       -0.70843995311492       -4.82978739894231
H            2.34183254584571       -1.28177241232865       -4.18720513696613
O            3.79345404422271       -3.21137337522892       -2.33409456963282
H            3.81979407876358       -2.46372767237074       -2.95584735923681
H            3.15747026737170       -3.84159001099240       -2.72223602013752
O           -4.39240511655085       -4.33012087645184        5.87099016250260
H           -4.69444262412621       -3.46170624894884        5.52171198882028
H           -4.70257090257894       -4.37475286481552        6.77678396422832
O            6.21376628420963       -1.69178243858611        3.01524328812017
H            6.85595147657715       -2.31828170739873        3.35151707262445
H            6.22893055284255       -0.91895533738864        3.63352462997809
O            3.96206340070924       -4.64393787503570        0.10977813797080
H            3.17927346731226       -5.20065457380760       -0.01020124192385
H            4.11782222881720       -4.22690579539060       -0.75141826345730
O           -1.86635582277786        1.94201591664506       -5.47939791208830
H           -1.83890082037475        2.88322755371286       -5.24397539756144
H           -1.07842749047983        1.56372441401490       -5.03591255289952
O           -4.98851603856935        4.55787690099767       -0.05823657835070
H           -5.19724715022768        5.37900797646076        0.38832198799212
H           -4.90957294180634        3.87595394778876        0.65758467729365
O           -3.45868463404183        1.77106467985303       -2.78412025159802
H           -3.34546034188922        1.58895757767251       -1.81399857450550
H           -4.33158611459859        1.40752682863490       -3.00240178491986
O           -5.32009485474684        3.08855235673247        4.48165851961984
H           -5.26480471220400        2.30033409683359        5.05462733441084
H           -4.48622503230402        3.56284742191482        4.65309409309933
O            0.96511360691030       -3.67113630339157        1.14138281426123
H            1.16131556228243       -4.40500058741170        0.52625340447936
H            0.92755781540631       -4.08353606020680        2.01886960379375
O            3.23438289610421        0.33066215651977        0.30427125549544
H            2.78440886597294       -0.52332455824580        0.10849682888396
H            4.15306528839584        0.09865500607534        0.48477918261533
O           -2.31118428807384       -1.42968740616823        5.15621815769865
H           -2.20250703541878       -1.44817776214134        6.10908484079242
H           -2.29321483542291       -0.46397365293088        4.91336947277131
O           -1.36166350832158       -5.83903547399793       -0.84287962102415
H           -1.60778773982568       -5.54704522786326       -1.72950727236901
H           -1.55398374092920       -5.06053443683597       -0.26046550050077
O           -1.99673708857490        2.80264260050490        2.20563936167429
H           -2.05205702086738        3.35762559989006        2.99960035249706
H           -1.75961899460841        3.37779452499120        1.46280512691406
O           -0.28573971618704       -2.92580988071541       -8.75630488523602
H            0.34133289529547       -2.31589698042786       -8.31087181357767
H           -1.14173860118131       -2.48031927881449       -8.70040601370765
O            1.07623132545632        2.82257924284959       -8.49085682582435
H            1.76596803312788        2.70971397930601       -9.14907969795103
H            1.51447233508717        2.72355162920110       -7.61657185013575
O           -4.55507808812888       -0.94314358405389       -0.87468112157021
H           -4.05801590004690       -0.14905297976529       -0.60961065258665
H           -3.86170390724734       -1.57995187214946       -1.14966978440332
O            1.12837757465514       -1.09192831045843       -7.28119562776094
H            0.96598883875128       -1.36310463506321       -6.35725604107741
H            0.51134425844753       -0.34547233452480       -7.43216267455243
