37
 energy: -59.891183858080 gnorm: 0.000265149223 xtb: 6.7.1 (edcfbbe)
N            0.37045943454300       -1.04603558008455        1.53646730951561
C            1.03361123553854        0.18462384882035        1.08105293207086
C            0.09352287980696        1.01612401169729        0.20839295895947
C           -0.02034949079482        0.53246221608312       -1.24290158669502
C           -0.96815446874816       -0.65679770284971       -1.52495286009094
O           -1.58251493082017       -0.64701212169087       -2.60506971749346
O           -1.04227447192296       -1.57861572591993       -0.67137939490667
H           -0.27795677705304       -0.84531588660322        2.32372404259048
H           -0.19314746727656       -1.41307889902215        0.72884088496439
H            1.33688304234074        0.76953976603805        1.94985338003412
H            1.92320982364960       -0.07254427616845        0.50457249972106
H            0.46436994438836        2.04142140989970        0.17874871016333
H           -0.90129781695483        1.03606274387345        0.65610004563552
H            0.96087304487766        0.23243206151566       -1.62180258177625
H           -0.37657349501422        1.34292898246296       -1.88243883297747
H            1.04031975005900       -1.77456329905986        1.85285947927437
O           -2.23460228830995       -3.57210457896916        0.86512440724831
H           -1.94353295626118       -2.93475734275984        0.19484013743707
H           -1.43018654852782       -4.05134510390107        1.14524856632584
O           -1.15850934900493       -0.67203997903062        3.80381026580039
H           -1.84771124352496       -1.37007276691963        3.64647053386706
H           -1.61334246418014        0.07823887087087        4.19071717666680
O           -0.12625052135325       -4.93486554725501        2.12657793629542
H           -0.06571539049097       -5.88235388000931        1.98315339578821
H           -0.53829274297085       -4.81104643387786        3.00990269667617
O            0.64717712319103       -2.46506340056387        4.92213210436501
H            1.24127115258188       -2.64248448480669        4.17166934805265
H            0.08298859806833       -1.72331442281820        4.63152249630072
O           -1.10902695416917       -4.43159837586888        4.61025572073535
H           -0.44782242925502       -3.72137730961152        4.82961859744943
H           -1.19410499657774       -4.98263034055288        5.39100928960195
O            1.88777256601124       -3.14217309980443        2.48980830202521
H            1.21234753335404       -3.82597169587136        2.29384205890946
H            2.73272137656088       -3.48302221142150        2.18826773766798
O           -2.85043994698157       -2.65576749407772        3.35790638710770
H           -2.39532907185867       -3.36149436239347        3.85469784721102
H           -2.77239768292178       -2.92793758936195        2.41946272547063
