37
 energy: -59.878266903648 gnorm: 0.000315916597 xtb: 6.7.1 (edcfbbe)
N           -0.77653597845263       -0.92175081074663        1.57727220751210
C           -0.18731611291881        0.34186377579652        1.10371258753534
C           -0.32829416601123        0.49513601433064       -0.40897567795828
C            0.38682117307381       -0.59513333173716       -1.21133685367749
C            1.92274374600615       -0.51940699593926       -1.04039537827033
O            2.51200870677180        0.45636812687503       -1.54287779398817
O            2.48611437358367       -1.44942160852970       -0.40581035545482
H           -0.09405542113648       -1.71599905784023        1.46319570064865
H           -1.04736675533558       -0.90415106183282        2.57919634045668
H           -0.68832113166047        1.18324697940592        1.58358411776276
H            0.87092354232753        0.36650311595711        1.36768703266750
H            0.09758773278153        1.45675416295585       -0.70307503755059
H           -1.38570308488740        0.49548541433972       -0.68083028157361
H            0.03556684506970       -1.59155397980415       -0.94690522874727
H            0.19663509415883       -0.43138963858287       -2.27450608740592
H           -1.61988046118542       -1.16512189836053        1.04788986584454
O           -1.82373739918567       -2.53762602448607        6.86152276909924
H           -2.06582534516151       -3.40335771797465        7.20027950287834
H           -0.91792633657320       -2.62294182626265        6.52371554085512
O           -1.70370405362339       -1.68647745503362        4.04018292602705
H           -2.22259934120356       -1.45059843765007        4.81618177661311
H           -0.87743359914827       -2.06218300239125        4.40486269389770
O           -1.23338262887253       -3.69057302486690       -0.18740493860583
H           -1.55260394355091       -4.48547138933917       -0.61951814284067
H           -1.89862115400490       -3.45273051192722        0.48801529941299
O            1.93517158298151       -4.05381749316154        3.54287272689524
H            1.59778036668393       -3.71565872219094        2.68786230357588
H            2.88961479368903       -4.10636176439379        3.44890561747173
O            1.00315107397092       -2.95343360162656        1.21512264653648
H            1.62608496292396       -2.48218399183861        0.61246346487347
H            0.38575827114348       -3.44746158912662        0.64379899626717
O            0.59170256966801       -2.49031854994137        5.31168195406651
H            1.04818672428167       -3.15076180499986        4.74996297130066
H            1.22882711412674       -1.78696088033121        5.46689043360488
O           -2.97229815813513       -2.75534988456757        1.77413863727557
H           -3.89509768833967       -2.96199199132624        1.93723223812637
H           -2.57033091381465       -2.56021554291289        2.64080842486145
