37
 energy: -59.873314952633 gnorm: 0.000583768903 xtb: 6.7.1 (edcfbbe)
N           -0.61420074620526       -0.01287707099566        0.28967106744994
C            0.62832249552986        0.29183322752179       -0.44660298444318
C            0.33958427610274        1.28734386520501       -1.56434770982343
C           -0.86325061516404        0.90241182167516       -2.43760852227778
C           -0.83365141391702       -0.58373408826640       -2.82793706172492
O           -0.33030517861529       -0.90026682238066       -3.93440648826365
O           -1.30430792919873       -1.39859449369035       -2.00012681179879
H           -0.43283308487232       -0.61491548015063        1.09263198735416
H           -1.05296908192982        0.88146424831161        0.60829892757300
H            1.36522524128490        0.72016639442572        0.23460450302671
H            1.01893420700880       -0.63489172466697       -0.87049870365177
H            1.22442339718298        1.35742998870152       -2.19335267918866
H            0.14556571633547        2.26725768628670       -1.13410836828246
H           -1.80315321228699        1.08464209007340       -1.91401003622225
H           -0.85219169615840        1.49663171243902       -3.35175607754190
H           -1.23556806829358       -0.51580652563945       -0.37987637823092
O            2.79010122319496        2.17290112341166        1.06275200335853
H            2.63982302964812        2.83994085284470        0.37062033665205
H            3.73993694973159        2.13317015046898        1.19851058221928
O           -1.52370637535967        2.44498667283213        1.21165817163314
H           -1.05457301481007        3.15522452987841        0.73242135310373
H           -1.41985366735151        2.63647532294717        2.14855379064957
O           -0.23609252183548        4.44290019557759       -0.18765125654976
H           -0.63660835872465        4.96531250501678       -0.88752413980657
H            0.70003441505816        4.32116630305266       -0.43033444453722
O            1.44508537108737        0.86161113505072       -4.95209525329147
H            0.80864966174145        0.20984918947040       -4.57693778753615
H            1.52067378075853        0.64156429593277       -5.88506945066567
O            2.92187247011323        2.72711149691374       -3.45183213327318
H            3.80760168570320        2.38108722480006       -3.59883047821591
H            2.33067591489025        2.17867763285433       -3.99275941822356
O            2.39811391947362        4.03805964596118       -1.04102573767358
H            2.97270634943434        4.80418939027603       -1.13678089934359
H            2.46980981705054        3.54589673912919       -1.87946512953750
O           -3.61804150582609        1.65631101233365       -0.46370047676976
H           -3.00102331874539        1.99262334557356        0.21176229896578
H           -4.32858513207607        2.30009440680169       -0.52008559519894
