16
Coordinates from ORCA-job 06_Aminobutyric-acid_zwitterion E -363.052663894887
  N          -0.05472829944350      1.09685338656590      0.71238488255751
  C           0.75350413066802      1.57047162565371     -0.45151487792905
  C          -0.13879443032705      1.84523993478825     -1.65583682933121
  C          -0.64840858112232      0.60950808964805     -2.41014141299398
  C          -1.75015558384313     -0.25219515205016     -1.77191764379433
  O          -1.80781752096554     -0.33562766534350     -0.49813051135930
  O          -2.51494566759214     -0.85993862124449     -2.54302894187051
  H           0.51965910859809      0.63675034637274      1.41520410712663
  H          -0.53335901918983      1.87407325891630      1.16426278637336
  H           1.29415358405069      2.46533984162805     -0.14851320269580
  H           1.47805128366465      0.78839457473851     -0.67747736809809
  H           0.45577673632398      2.43716723298835     -2.35538971597573
  H          -0.97492373302127      2.48303318112887     -1.35173916171187
  H           0.19567163939228     -0.06341311352442     -2.60295111753799
  H          -1.01587833400891      0.91896790627653     -3.38906916365347
  H          -0.81410531318403      0.41667517345731      0.30605817089384
