37
 energy: -59.877339584786 gnorm: 0.000615165944 xtb: 6.7.1 (edcfbbe)
N            0.43519690746141       -1.00670521418257        1.32926524557451
C            0.66343195823658        0.45076822112610        1.36349264779367
C            0.23064114549416        1.10954892591605        0.05674248294491
C            1.22227624642484        0.92641430028761       -1.09884459483635
C            1.15061343210838       -0.40558361867647       -1.87074233247511
O            1.44294969612215       -0.36070454609359       -3.08666218435627
O            0.83571099453915       -1.45258938149576       -1.26163079785219
H            1.03526212253419       -1.50315955273714        2.02545752771797
H           -0.54512396626876       -1.22360750805228        1.50462903823048
H            0.10653230854608        0.87702459193741        2.19833406165136
H            1.72482842939359        0.63500208415855        1.52964935802612
H            0.12709319588381        2.18087958484529        0.23023780684491
H           -0.74566449487649        0.72765826852904       -0.24790663062172
H            2.24971828222398        1.01040539441545       -0.73470870321126
H            1.08242561406729        1.70877688204272       -1.84770470485708
H            0.66068796680231       -1.34079794006515        0.35030634816653
O            2.49892358447818       -5.09049646197626       -3.56068779277067
H            1.68233338754162       -5.43733976642353       -3.18658150511417
H            2.26892076772089       -4.21274525842528       -3.91275147073742
O           -0.38922687782359       -0.69041838973839        6.23535433522024
H           -0.15818419661319        0.01268813771031        5.59151420770036
H           -0.07558671248481       -0.38651855561371        7.09149914607850
O            2.95545151533876        0.25998924421802        3.81505962097526
H            3.64259632964722        0.20284253460691        4.48458123009242
H            2.72985529809168       -0.65956377562842        3.57446626404435
O            1.68069892774463       -2.59493822390071       -4.59725105405486
H            1.55689940178027       -1.82309190824186       -3.99772822004603
H            2.08374543610904       -2.23493310182596       -5.39355182112082
O            0.50839044638924       -3.04409671814544        5.19480153253970
H           -0.25722733223962       -3.61123405439958        5.06839397766888
H            0.17368771242700       -2.21915009761382        5.60730504264587
O            0.51073366987536        1.24955029461608        4.52505650928488
H            1.39930401540033        0.93186230480064        4.25418600652169
H            0.62599479541298        2.15915239429801        4.81101192179336
O            2.06802534023367       -2.26808666219532        3.15333012373252
H            1.52533126868008       -2.57670413462141        3.91572900470547
H            2.57313738362567       -3.02518629352925        2.84538037195975
