34
 energy: -56.704574279836 gnorm: 0.000318987346 xtb: 6.7.1 (edcfbbe)
H            1.26493361736180       -0.72233646066020       -0.58449326720239
C            0.17830212720233       -0.80092637504455       -0.56836889525775
H            0.06938925925322       -0.31705733239446       -2.60266419741593
H           -0.09474421318334       -1.85336088826279       -0.64360551423224
N           -0.38551515301708       -0.04972533450957       -1.70500935895969
H            0.09953894113854       -0.73431594798693        1.58895855353650
C           -0.33599105898850       -0.21285221296606        0.73842087463267
O            0.09727302993904        1.99993062624937       -0.11906925598464
C           -0.01521277997186        1.29589126095256        0.91738116768706
H           -0.21964313275418        0.95206236261246       -1.44901259884750
O            0.08163444108663        1.72054319915575        2.08386046199350
H           -1.40465471626366       -0.20894185791240       -1.76621673818789
H           -1.42283506992837       -0.30463934395095        0.80105032426197
O            0.79575736610965       -1.10507812195057       -3.96128498464880
H            0.78474011590358       -1.99031171224809       -3.53106540429267
H            0.30943842376702       -1.18812460080015       -4.78636431126430
O           -3.17825750315981       -0.50577762002414       -1.80299368376039
H           -3.59997451429399       -1.31182297295980       -2.11688390968741
H           -3.79693320723540        0.21829361989498       -1.92890686098581
O            0.89073178359277       -3.42328867552068       -2.59062097022835
H            1.77965336466115       -3.29919993753471       -2.20802575729528
H            0.84046038158195       -4.33512563301991       -2.88905576025207
O           -1.24952680185634       -3.18412096166588        5.78190328151535
H           -1.67373757094555       -2.36431181639028        5.50890957855672
H           -0.34273859554829       -3.14952779405522        5.46111300490252
O            3.48978956595671       -0.71122510606684       -3.49754678872852
H            2.55271640050528       -0.75100058335716       -3.77563799938329
H            3.64122169008394        0.18028938459349       -3.17331895089070
O            3.07008807497285       -1.88744049557754        0.73433730103538
H            3.24149569266862       -2.30054427083965       -0.13276620672349
H            3.89973910929375       -1.49225435178041        1.01515936972976
O            3.50640430050783       -2.86470554518658       -1.86034871999682
H            3.56883997590770       -2.07186007396611       -2.44115720286479
H            4.24871865563646       -3.42801042670956       -2.09728658070825
