37
 energy: -59.874126993351 gnorm: 0.000212402081 xtb: 6.7.1 (edcfbbe)
N            0.11845694244415       -0.49794037389254        2.09030425191152
C           -0.10895078688510       -1.02456562168084        0.72826546112948
C            0.09429408412127        0.04980436469460       -0.33197949518646
C           -0.16379864185087       -0.51368847169249       -1.72235555251837
C           -0.06183116942352        0.54180277253306       -2.84166030178069
O            0.19482390100087        1.72203361697959       -2.54254292191940
O           -0.25321420834708        0.12611963603673       -4.01786740417956
H            1.06774210535954       -0.12921585517008        2.17166622386851
H           -0.55062101780080        0.24681117301768        2.29305048527645
H           -1.12713660263904       -1.40846925960462        0.66954586171915
H            0.58019585317158       -1.85012368291417        0.55351832570400
H            1.11145026213496        0.44645363325110       -0.30892016616946
H           -0.58562453331737        0.89100566521610       -0.18131814876125
H           -1.16379128513088       -0.94653988321450       -1.78481546049106
H            0.54797659178777       -1.30415502131128       -1.96871655913748
H           -0.01418013850640       -1.29554796528709        2.78679167961825
O           -2.61417123320267       -2.65399777571627        2.17149051813273
H           -1.87837963561991       -2.70223586302023        2.81252532116123
H           -3.40859198803191       -2.91455082116656        2.64274270733429
O           -0.23998481094998       -2.66644306638151        3.59140822659113
H            0.11676553355778       -2.78317151521188        4.48695381591389
H            0.26525397292763       -3.26036911534217        2.99393258578879
O           -1.38952416761419       -4.38364263436727        0.38746409364540
H           -1.92412005811572       -3.79473489025102        0.95918379559669
H           -1.54809296599188       -4.07176393104796       -0.51615402793982
O            0.98294017614282       -4.08096647643969        1.64141317363984
H            1.43596103871977       -4.92571241125481        1.68477144221423
H            0.16495599217718       -4.23365410144129        1.11577236377955
O           -0.86219534929748       -2.44456522771541       -4.41303710216810
H           -1.15410334197707       -2.50131403676295       -5.32804711359290
H           -0.61504623673181       -1.49751643925739       -4.27117328471915
O           -2.16928753234266       -3.31423740318843       -2.11028141584020
H           -3.05982396243853       -3.48146574152639       -2.43278567085581
H           -1.63748458598815       -3.08195751973676       -2.89097071133476
O            0.69746162897517       -2.97195893660918        6.20774170590050
H            0.48071160379393       -3.74707500205280        6.73311948547882
H            0.82605956588324       -2.23645081849875        6.81408681220850
