37
 energy: -59.872964803311 gnorm: 0.000355844546 xtb: 6.7.1 (edcfbbe)
N            0.16643446918469       -1.03876496479782        0.50741043398569
C            1.02549447105252        0.15404494984034        0.70701102821229
C            0.52289887495854        1.33480161429252       -0.11704664514169
C            0.60316362740488        1.08930004841826       -1.62313377488233
C           -0.58354441138969        0.31381043422926       -2.22098394120241
O           -0.58238619296198        0.15887784462563       -3.46924676464895
O           -1.46255416606253       -0.14475185571235       -1.46039319763132
H           -0.17790680261412       -1.42178022292045        1.38556396658920
H           -0.64308996584445       -0.76602821063149       -0.09997923055005
H            1.02515224841495        0.43403029817188        1.75940987815079
H            2.04769340624109       -0.08348784747921        0.40935161334161
H            1.12966694114551        2.20626801993749        0.12753400156013
H           -0.51291733684418        1.55949471162453        0.14782904734146
H            1.51047494860451        0.53901783226707       -1.87911980292144
H            0.64187447166106        2.03675846476945       -2.16512424146994
H            0.68085661062861       -1.79460643364329       -0.01952946627395
O            0.66585689502053       -5.01438769164738       -3.84265129012955
H            0.72330746996350       -4.04341289666736       -3.89089604802060
H            1.53306862359062       -5.34808003500135       -4.09198336508035
O            1.41480297286089       -2.91344486802361       -0.98711573324432
H            0.94080557322393       -3.76900663895523       -0.92421213975337
H            1.30769359678788       -2.63806165517829       -1.91716867462644
O           -0.10243518426926       -5.16711418581651       -1.21180574766676
H            0.12295177970720       -5.26710456102203       -2.15883964073831
H           -1.06103734822090       -5.10014045249711       -1.17099853121020
O            1.85365432030524        0.27738162427617       -4.70664705892706
H            0.95430463271384        0.35879763452564       -4.32385182463268
H            1.82104892733868        0.71665473825895       -5.56049963790965
O            4.32484357777275        0.08718209990040       -0.13849538127701
H            4.89511647553308        0.31478421381023        0.60283434773041
H            4.72123894862167        0.47621811739851       -0.92358465030600
O            4.16523052202815       -2.75615334063744       -0.37868217620325
H            3.22961791319849       -2.93786628063959       -0.57745764183746
H            4.21635158424065       -1.78920733992102       -0.29479731178449
O            0.96199554820657       -2.22815603619617       -3.64168276818037
H            0.19719123939028       -1.63229338168303       -3.64136392539588
H            1.65894073840512       -1.71897374721860       -4.08192770521672
