13
 energy: -275.754393871846 gnorm: 0.000324993434 xtb: 6.7.1 (edcfbbe)
C           -0.82118853761320       -0.64013299962060        1.03038304009105
C           -1.04306030369478       -0.27782672029097        2.48168170844387
O           -1.92507718494816       -0.91277388614481        3.13314433936830
O           -0.35573940712562        0.63042659294307        3.00222763686748
C            0.00103170485280        0.41289662189009        0.30325621865982
N            0.07070030490641        0.12712582845216       -1.13612974090562
H           -0.33338151663371       -1.61608751194560        1.00777605045807
H           -1.80564501356656       -0.75417938602150        0.57662499482028
H           -0.47309293248945        1.38428800506810        0.44529155535173
H            1.00411889846369        0.45347222259724        0.72591289615761
H           -0.87051457336815       -0.14662846485207       -1.47744876941002
H            0.73144519163098       -0.63852090727006       -1.35087251706897
H            0.38645850917710        1.00512376988166       -1.60378504386485
