37
 energy: -59.868915363247 gnorm: 0.000120302997 xtb: 6.7.1 (edcfbbe)
N           -0.31089765766643        0.38463059670860        2.47873522744118
C           -0.26731284108386       -0.58427172725195        1.36799694081708
C            0.04871703521767        0.11392504977032        0.04982211024456
C            0.08619054499029       -0.86918846892792       -1.11265994999398
C            0.42901246034732       -0.19933934606422       -2.46135540034095
O            0.64862819592520        1.02741373697667       -2.48323552965912
O            0.46788598167283       -0.96032463665215       -3.45856166536907
H            0.60216666729497        0.82297973560020        2.60850834945376
H           -0.99905343163829        1.13473849816964        2.26661997218490
H           -1.23701296884686       -1.07516671964364        1.29317181993390
H            0.49114926560046       -1.33985353810623        1.57343556412896
H            1.01546334450431        0.61864612285317        0.09452892901649
H           -0.70382301963904        0.87261880827911       -0.16851436993428
H           -0.87678591541666       -1.36515658884316       -1.25179569094257
H            0.83788740820036       -1.64668079170097       -0.95728720580198
H           -0.60964143002251       -0.08152686263020        3.37163988749894
O           -1.17575961704524       -0.80879466579865        4.76171068974891
H           -1.07876301901046       -0.40325886706522        5.62755040587948
H           -1.05907180989782       -1.76508155501860        4.88186505786142
O           -2.11529626168830        2.42212319655321        1.91052136374176
H           -3.07501803229833        2.37654250024236        1.92008955539563
H           -1.86515811511057        3.33191234105603        1.73205520435106
O           -0.82388912072379       -3.56504362161867        5.10412247102051
H            0.01356171511324       -4.03576504297859        5.05472885757433
H           -1.51888667583351       -4.18724596048956        4.87092822789989
O           -0.14420548300388        0.92507305962318       -8.07583745181604
H            0.65044786458775        1.25045848219214       -8.51104233453105
H            0.17049265301167        0.38396072231156       -7.33078726212285
O            0.19364188509936        3.66493882627166       -3.28255662466561
H            0.53126995384639        3.68346330759139       -4.18319305159126
H            0.34056095690729        2.75812653245033       -2.96594112377474
O           -1.29955319364679        5.79018480025882       -2.09609053527067
H           -0.75055238730035        5.04766468360826       -2.39548272244953
H           -1.76014240388269        6.10605396450550       -2.87928882892561
O            1.02516867959581       -0.71374287868393       -6.10471895230066
H            1.09202202625760       -1.64659275076192       -6.33466697715232
H            0.82409374558964       -0.70023794276427       -5.14393495754950
