34
 energy: -56.708991041503 gnorm: 0.000291159040 xtb: 6.7.1 (edcfbbe)
C            0.50746494591988       -0.94982419258697        0.41093964319941
C            1.19331765059262       -0.05010329688225        1.45434782594364
O            1.79991508508326       -0.65456169643780        2.38593959060112
O            1.13243744126383        1.18220690289694        1.33324695470972
C           -0.29652057633437       -0.16303011291072       -0.60782406452500
N           -0.86637620379218       -1.08326216579742       -1.61094953650876
H            1.30120035139296       -1.51712823778771       -0.07835567245889
H           -0.12369407365586       -1.65531407964709        0.95079443372031
H           -1.09218392152245        0.38108668370724       -0.09871600768382
H            0.35517511354815        0.56898852965235       -1.08633203099209
H           -1.50913733325570       -1.77698445868914       -1.14292232082279
H           -0.09908120444114       -1.62695072384174       -2.05572596767085
H           -1.38403389934731       -0.57541554906748       -2.32854141917827
O            1.24865310687840       -2.53230877002973       -2.70760674033658
H            1.76862806471596       -2.27818568381455       -3.47528684411797
H            1.20967078759324       -3.49288389968062       -2.68343617213571
O            1.48060288743054       -3.34715765141559        2.51712375002964
H            1.62859627464868       -2.37614205264254        2.47480808515217
H            1.96213239335774       -3.65508239807544        3.29006493589500
O           -1.22801304019668       -3.67762137476035        1.90434069218671
H           -1.64192746284464       -3.51150480838847        2.76605259022649
H           -0.26830573492694       -3.68268983716575        2.06740692803197
O            3.14521929812018        0.48342463296992        4.45850241809582
H            4.05871924059788        0.36026709759684        4.18163881651342
H            2.59666446656922        0.14075653935314        3.71849699588377
O           -2.50025049251078       -2.88138081887273       -0.40020737385176
H           -2.03254813685460       -3.26341782232911        0.36565468053958
H           -3.37778376494042       -2.64072422793829       -0.09045407079399
O           -2.23999481804371       -3.03495599865240        4.48765928935432
H           -2.13396722615258       -3.61411881714090        5.24880245618463
H           -2.10310466659255       -2.13327134013463        4.79409059962559
O            2.38982505774001        2.67714042202885        6.08572379608143
H            2.15001463511039        3.30745948798314        5.39904019319319
H            2.62570575482233        1.85881071855061        5.61737454593243
