37
 energy: -59.875129371207 gnorm: 0.000453065677 xtb: 6.7.1 (edcfbbe)
N           -0.85045419063473        0.61563177265616        0.92759702442925
C           -0.79147646407123        0.06568184982150       -0.44294822520823
C            0.55678188772363        0.31656509932368       -1.10641005220899
C            0.65944617354998       -0.46429808926687       -2.41221805860339
C            0.81926874377758       -1.98669683995356       -2.21796503663212
O            0.99379137543437       -2.44264840549710       -1.07010353418435
O            0.77964982418769       -2.69224667519151       -3.25826948438507
H            0.02347440155246        0.41413206966112        1.41763503200626
H           -1.01813128502946        1.62200188393265        0.92081841380882
H           -1.59656546996254        0.49682357086921       -1.03664348888151
H           -0.94317224388019       -1.01044069369296       -0.38687784556467
H            1.35962237308559       -0.03159343607038       -0.45163012196101
H            0.70059726020608        1.37745450598788       -1.31387422348688
H           -0.21892967944664       -0.30126259307483       -3.03830660661974
H            1.53543271712385       -0.14921058966249       -2.98468131012892
H           -1.63236710605098        0.09758462876861        1.44939870738206
O           -4.32417528131896       -0.95508593048785       -0.16384038767530
H           -4.49946771247049       -1.73521905781650       -0.69546595338785
H           -4.04989429175601       -0.25449064942617       -0.78656359292418
O           -2.57231569941747       -0.02326875983653       -4.42771439878748
H           -2.14147040529614       -0.88108933486849       -4.56341614851401
H           -2.26682113301150        0.51521437250376       -5.17021502483855
O           -0.81631962515277        0.35568358960253       -6.70091951899804
H           -0.70907198989107       -0.53981743337829       -6.33877973502698
H            0.05649864259737        0.64260116998450       -6.98326260775975
O           -0.83581813155545       -2.10873481945854       -5.28718329706338
H           -0.19051290932325       -2.29562547880692       -4.56367643150606
H           -1.04109953958187       -2.96442259709669       -5.67536750798262
O           -0.71770746991920       -2.99500725625450        1.06863409076327
H           -0.09267305216731       -2.86254241616536        0.33512253599594
H           -0.42652547892025       -3.79131306885077        1.51948844914834
O           -3.50854471561699        0.96048498526814       -2.00922584459347
H           -3.22443137251201        0.59019423594777       -2.86326832667077
H           -4.07557356404967        1.70967763791924       -2.21452290970421
O           -2.61914047908933       -1.03678324675909        1.97776724413806
H           -2.08508174620516       -1.82416039819490        1.78503517638770
H           -3.33753936285959       -1.03141960243149        1.31307899920576
