37
 energy: -59.886237910806 gnorm: 0.000321667460 xtb: 6.7.1 (edcfbbe)
N           -0.66443636045110       -1.76882589478239        2.08655479727824
C           -0.98010853205794       -0.82616242284032        1.00120546774098
C            0.25657683013679       -0.01620105809951        0.61279693952156
C            0.15500930295230        0.51658483053772       -0.81171874631520
C            0.27919661041968       -0.55985654204890       -1.92001105988466
O            0.60234854734931       -1.72851099502926       -1.59842437970257
O            0.05718970814742       -0.18173822336322       -3.08811413366261
H            0.04416029662739       -2.43410755684119        1.73083364611157
H           -0.27485116795232       -1.26883938630161        2.91532900352014
H           -1.78868063074631       -0.16476610086882        1.31144797716437
H           -1.31516754706753       -1.38786335327099        0.12760831231825
H            1.13818753815719       -0.65402525590530        0.66545831796851
H            0.40226319752709        0.81953254533304        1.29644599483408
H           -0.79124261559659        1.03394291107087       -0.98552281125756
H            0.95435725720588        1.23380552086743       -1.01547010418781
H           -1.51778802160070       -2.29954002811874        2.38218375073531
O            0.31202139294523       -2.85996832817882        5.74872926626273
H            0.38209700084448       -2.01002715538990        5.27146612653279
H            1.09703220278854       -3.36528276124549        5.52127846662715
O            2.81260971260365        0.07786897577046        3.12203966091388
H            3.60789662035253        0.27806129338690        3.62263122247945
H            3.04081799186764       -0.66941209244643        2.53393777973521
O            1.14909980609122       -3.26445594628516        0.55346742082471
H            1.05259751835052       -4.18224479861159        0.28409032123164
H            0.96272287946616       -2.72275317567231       -0.24385076358312
O           -2.20219151810730       -3.85507403015563        5.39917490171583
H           -2.70635207403836       -3.52555848886546        6.14770851790563
H           -1.28067514773667       -3.54831196645825        5.53994790125357
O            0.46141747194385       -0.51910116242392        4.27679996926113
H            1.33636896687229       -0.28429596432873        3.89470055084902
H            0.08627144669098        0.29192204166175        4.62897862052280
O            3.43737881779921       -2.04030599180222        1.48659957447768
H            2.65256650060750       -2.55345162518816        1.20818219938851
H            3.97770441260280       -1.92798460927131        0.70110504291470
O           -2.87810576962590       -3.16206120887375        2.86991812074648
H           -2.68919535464376       -3.41734151630542        3.79985075317522
H           -3.10129629074728       -3.97361247974848        2.40811837460446
