37
 energy: -59.866876677212 gnorm: 0.000180107152 xtb: 6.7.1 (edcfbbe)
N            0.37927891564470        0.72879469834497        2.35379886051462
C            0.38930260098162       -0.16800519223983        1.18243682930361
C           -0.00118597730814        0.55789538341857       -0.10068524467534
C           -0.04079867069380       -0.41043065037448       -1.27448136691643
C           -0.43574010093866        0.25305724035781       -2.62134295516160
O           -0.55967898746708        1.49440035937789       -2.65830377849570
O           -0.59602893264116       -0.53117867919006       -3.58590595951939
H            1.01232881390541        1.51635578218445        2.20650439753923
H           -0.56315509069649        1.08807234399902        2.51234446565093
H           -0.31745966384566       -0.97824088770118        1.36075284250160
H            1.38897312224915       -0.58634855330158        1.07327727106103
H            0.70320108284340        1.35617100443842       -0.34331484781119
H           -0.98839609930424        1.01497846225068       -0.00999345016386
H           -0.76468885417869       -1.20729721419752       -1.09953394101198
H            0.93753927616563       -0.86645757383758       -1.44190097318014
H            0.70679901759115        0.17277038993352        3.22966482867471
O           -0.51840863812610       -4.40274306538307       -0.22609470303527
H           -0.07442280743331       -3.89341074687440       -0.91137879084565
H           -1.02541533975610       -5.08878607532210       -0.67333017968845
O           -1.27643499296916       -2.87478175206776        6.22895659333959
H           -0.88463479672111       -3.58922369432158        6.73795307036455
H           -0.94493377677007       -2.98138161002022        5.31191593820653
O            1.17055000433700       -0.73103649075563        4.38078853286744
H            0.78856544586306       -1.60763463189274        4.16234643755047
H            0.75921111537626       -0.48225897803410        5.23061970056391
O           -1.78319533433772       -2.58490784364586        1.52966811091609
H           -1.39895366342912       -3.24686641277434        0.93050173435334
H           -2.73022810475834       -2.74402915808665        1.55796099061775
O           -0.35731120370074       -0.32667566459683        6.62917256445817
H           -1.09214878538505        0.27895696447491        6.75705672276747
H           -0.74729553822013       -1.22505442230254        6.58290089405577
O           -0.18032750074882       -3.01067292520314        3.71896768698040
H            0.28158752302164       -3.78975490137179        3.35964951948069
H           -0.80883073393201       -2.75958908214161        3.01342929359761
O            0.95346167873977       -5.00713983892422        2.18814688384354
H            1.88842911097690       -5.02406705700933        1.96513534614039
H            0.46998288568170       -4.87160252725195        1.35779167515411
