34
 energy: -56.713098203878 gnorm: 0.000383295594 xtb: 6.7.1 (edcfbbe)
H            1.09249408255046       -2.14479863538043        0.30515906801459
C            0.26180305954565       -1.46030468071048        0.13131001679303
H            1.01562954838706       -1.14404603158588       -1.79947030234238
H           -0.62748193761554       -2.04075750367711       -0.11322538479526
N            0.61282556290342       -0.58033402532221       -1.00115698007015
H           -0.25204416735473       -1.27144630428155        2.22174271281471
C            0.02949818726836       -0.63076311062843        1.38945371486192
O            1.89202785058632        0.79525212407473        0.89591683018552
C            1.29069730711878        0.16467392182365        1.79616117464693
H            1.30617889980375        0.09780652346837       -0.61191272049546
O            1.63131552996339        0.14635394860051        3.00145398075894
H           -0.20238257441141       -0.06374526366313       -1.33106051706042
H           -0.76675563812244        0.10014047483272        1.23123594743924
O           -2.03042080145520       -4.45457332583159        2.25546922100372
H           -2.51349001724625       -3.80134222926741        2.77205372924366
H           -2.31332558959104       -5.32377009705484        2.56026798114018
O            2.26134420063642       -4.00954202947000        0.63553412304238
H            1.72956167653700       -4.13710893456576        1.45109131407723
H            3.14682756205622       -4.32006799296930        0.83759277077316
O            0.72888500892380       -4.21603276156068        2.86130259630603
H           -0.20571666654631       -4.27456327016646        2.59501141784781
H            0.79010156219078       -3.43344968510625        3.43941235262760
O            0.70110447536089       -4.40306523473378       -1.63511307269852
H           -0.19822286168804       -4.24561532197661       -1.29477938344269
H            1.27611939882074       -4.35773740920965       -0.84892765001350
O           -1.82440919812176       -3.85946381905160       -0.51484639429484
H           -2.63590850633097       -4.17769738612481       -0.92012410290316
H           -1.85315087303926       -4.12026404485993        0.42011378616506
O            1.52287452268878       -2.20945724752474       -2.94235996164733
H            1.19415718774847       -3.06489306160562       -2.57161902226571
H            2.46971867714289       -2.31461780130600       -3.06418943905179
O            0.81444262418917       -1.95222753375795        4.47381848853155
H            1.12059673069998       -1.16133512588850        3.97170779164354
H            1.30900017641164       -1.94609412554223        5.29812091317004
