28
 energy: -44.611057929329 gnorm: 0.000464762248 xtb: 6.7.1 (edcfbbe)
N           -0.18740803476908        0.55101028721887        0.04566233867302
C            0.32269316428166        1.90443672216220       -0.22355649113164
C            0.03688910015959        2.32887101539072       -1.66112034011843
C            0.88707030937146        1.59502104929374       -2.71164191904313
C            0.27979825552778        0.25929815177774       -3.17112162905981
O           -0.09266435026384        0.16319403102252       -4.35795984236033
O            0.18676628303861       -0.66835981610693       -2.32616609585991
H            0.15746249997523        0.19168115450872        0.95435884560749
H           -1.23246843037661        0.53642747339707        0.03100932210936
H           -0.15788577913444        2.60599174991422        0.45874677190779
H            1.39895338012157        1.91996993768956       -0.04420067049810
H            0.24561502119167        3.39533356807706       -1.74873503573926
H           -1.02171238754070        2.17950927322872       -1.88270715264221
H            1.88578533219549        1.39475985926537       -2.31747126643931
H            0.98563283767283        2.21030421296855       -3.60742710910869
H            0.10723288211231       -0.07939877596057       -0.73653825301328
O            0.77694416976496       -0.31995655179292        2.51628930774444
H            1.12375315189545       -1.21390017867817        2.58323333634471
H            0.27606919563421       -0.14031557762763        3.31792700172831
O           -2.36273537839004       -1.67479669458080       -2.09351197840378
H           -2.67092883723409       -1.58310535248640       -3.00960480207573
H           -1.40037383917386       -1.51250077758829       -2.15304572070745
O           -2.42717165692155       -1.17789533101799       -4.85635620650952
H           -2.27450501487638       -1.78753059953382       -5.58450855798894
H           -1.59091052597105       -0.67807374063259       -4.74740055248765
O           -2.90316927136553        0.29151690710078       -0.28730360505671
H           -2.82527179111130       -0.41217470180608       -0.96630806293451
H           -3.50334822421337       -0.04844827661618        0.38327356555410
