37
 energy: -59.862135976597 gnorm: 0.000185319773 xtb: 6.7.1 (edcfbbe)
N           -0.15542622045261       -0.51973225691974        1.25240425322086
C            1.07611765976911       -0.02818489476831        0.61240523114658
C            0.75210313524852        0.90100571500809       -0.55675077378069
C           -0.37965066560404        0.39113412933258       -1.46178508343961
C           -0.25811173650208       -1.09328647084194       -1.85901565501778
O            0.12623190085255       -1.35810369666032       -3.02002209581598
O           -0.57430536588353       -1.94968625624396       -0.99945163146952
H            0.06256178058369       -1.03175704098287        2.12597996776834
H           -0.81070507751401        0.26699538781113        1.44672873240175
H            1.68289776491657        0.50405304857964        1.34478534290254
H            1.63855265592175       -0.89008129261755        0.24908900875191
H            1.65538082377995        1.03089635908809       -1.15349860236781
H            0.45118486092498        1.87753527969019       -0.17549040297040
H           -1.34222085541847        0.50997489561748       -0.96130325507354
H           -0.39448752461335        0.97235586433357       -2.38481352919092
H           -0.59214076549882       -1.17345110873991        0.56198983939570
O           -0.58549542974252       -3.60626833863620       -4.36493657756336
H           -0.00083955149934       -4.29786656758356       -4.03888829916737
H           -0.31732188091074       -2.78621876637825       -3.89367570125334
O           -3.34955017871762       -4.06178321926336       -4.82920217821126
H           -2.39586844396484       -3.87703473600670       -4.79322039610515
H           -3.65646010451478       -4.02240372353362       -3.91767467047080
O            0.70234297993110        5.74197563116741       -0.83265181967157
H            1.03479570024015        5.43194401415029       -1.67943148029637
H            0.34591537193773        4.96495726091804       -0.37457051304929
O            0.60011550749017       -1.90888457999876        3.55516508048264
H            0.60506849822581       -2.86942413434734        3.52511255372686
H            0.38782757300256       -1.64206481997250        4.45487593116489
O            0.89952934340074        0.86454878051479       -7.55251958335498
H            1.60057546537671        0.51482720678840       -6.99356563840244
H            0.11683537343678        0.33128563233967       -7.38154992982460
O           -1.87822422115205        1.60171135333649        1.65701540998350
H           -2.34399515028719        1.73535910269079        2.48751486288101
H           -1.51864941955908        2.46508056451740        1.38640170864827
O           -1.00132228314585        4.15259919550628        0.89061566063466
H           -1.73481151908416        4.56592126471714        0.42236120018173
H           -0.77783800116413        4.73645721747247        1.62476103323705
