37
 energy: -59.865167680027 gnorm: 0.000389779702 xtb: 6.7.1 (edcfbbe)
N            0.16910116646351        0.73758293272334        1.78710374058751
C            0.68288485317889        1.76795225843776        0.86571754333187
C           -0.24192538224203        1.94856378105529       -0.33672985939831
C           -0.74090602977290        0.62436552128337       -0.93448263671381
C            0.38679948411048       -0.41343592061950       -1.11557609027280
O            0.94551355164391       -0.50569457773132       -2.22975488425105
O            0.67063161801966       -1.11598793350017       -0.11379781303912
H            0.69499648833061        0.73603665663696        2.67577012302728
H           -0.81439136958287        0.91670691937593        2.04833001018690
H            0.78801613875172        2.71294129383854        1.40117942489366
H            1.66571402938598        1.44795377954361        0.51587372807218
H            0.30169630060179        2.49698634723490       -1.10660115226711
H           -1.11219725995315        2.54246816594809       -0.05611165353262
H           -1.49678440746764        0.17068765800376       -0.29179325452852
H           -1.18878961528139        0.81789346189580       -1.90940519633560
H            0.26082255949295       -0.18102088546602        1.29132735915518
O            2.42414734491889        2.12005950992185       -6.01436050451853
H            3.19659705288788        1.57303104922614       -5.84426320520576
H            1.87641224302747        2.05642713975856       -5.20729128826725
O           -1.89662425745996        1.93582571539467       -4.23793911405591
H           -2.12768876105563        1.41577293209532       -5.01441171698197
H           -2.23254424712834        2.82683000555711       -4.38674345175213
O            0.46659633842367        1.26395012962560        4.48307786610931
H           -0.49751301916083        1.23855478953490        4.39341924141416
H            0.67330551390646        0.88314104260369        5.35185833632126
O            0.88558202542170        1.78562985207997       -3.72045390390832
H            0.97745915375344        0.93484671911056       -3.24055494097788
H           -0.06781656075312        1.86428554508629       -3.90114916275084
O           -2.21403788434504        1.05460400587942        3.29433671550316
H           -2.74537288042154        0.26580128860380        3.43691971529867
H           -2.81359721801317        1.80635186082473        3.27971619906273
O            1.05129627788954        0.23612886175668        7.02773577393212
H            1.21361769466291        0.83072059721008        7.76679353577358
H            1.61826532227155       -0.53214616165347        7.14502943587286
O            1.34318410067697        3.68769662147776        3.40421708918076
H            1.05173574845226        2.89001505580484        3.88530199507141
H            2.24028388636240        3.86392898145463        3.69825399591953
