37
 energy: -59.864124468765 gnorm: 0.004087412809 xtb: 6.7.1 (edcfbbe)
N           -0.45831430226268       -0.34569174945562        0.96468254453681
C            0.65251600942734        0.49639117694728        0.48043187626848
C            0.22512688943390        1.34715854063732       -0.71347706994811
C           -0.59625843236613        0.58948233244257       -1.77000983514749
C           -0.05755408591193       -0.81537028784231       -2.08873536852550
O            0.76249853854810       -0.96492489883821       -3.01264769675611
O           -0.50240309847283       -1.76181225676467       -1.37689019618010
H           -0.21200103981767       -0.79851600787556        1.84430796178041
H           -1.34700748333002        0.19780018611990        1.07257633575802
H            0.98878526551652        1.14932446992262        1.28694528665482
H            1.47384615199201       -0.16103625410114        0.18945050378521
H            1.12249724933493        1.75069313438453       -1.18194176744833
H           -0.38271088776976        2.18477360352769       -0.36936916179017
H           -1.62769391470991        0.47870127873896       -1.43267587337922
H           -0.59701836826770        1.16265402394246       -2.69795187882872
H           -0.63015011945896       -1.06929354840258        0.22956458291344
O           -3.01744193728527        0.62096877643261        1.01099191360387
H           -3.26868492949616       -0.10837059468677        0.41855348075452
H           -3.59933481359290        0.57146013028152        1.77435832693650
O            1.44435453286932        2.38786660645333        3.07773001192761
H            2.25313299064009        2.90805592411265        3.10029201586817
H            0.79458013558576        2.85199468406635        3.61220892500167
O            2.87249860382472       -4.42623223363981        1.62324153712250
H            2.24529535614722       -4.71689891408767        0.95341219952088
H            3.08497921062087       -3.50039774969252        1.40476281576799
O            3.61804332038461       -1.78152511616794        0.92219938567091
H            4.12992986959750       -1.36761745138947        1.62667740329043
H            4.18728755561883       -1.81965897492806        0.14662674900071
O           -3.14193547806724       -1.65967776738514       -0.58350612122655
H           -2.24766698420891       -1.77747572205227       -0.95857025023345
H           -3.47632977538676       -2.54482815447967       -0.42499765713806
O            1.51431267031931        1.32959119449046       -4.40106476097341
H            2.03313013607334        1.79591312619427       -3.72327244222288
H            1.28607423826925        0.46993587596546       -3.99502181540424
O            3.04085569844321        2.68961541504123       -2.36066061343928
H            3.08122573427243        3.64574817636249       -2.47203348860888
H            3.94846449350101        2.37956602591795       -2.27120085913366
