37
 energy: -59.862501591122 gnorm: 0.000305947342 xtb: 6.7.1 (edcfbbe)
N           -0.28670931945037       -0.83797216235753        2.03581420139646
C           -0.13936822232139        0.62433252933677        2.12902155872416
C           -0.20891587531015        1.26342437900275        0.74579690542775
C            1.07735814985200        1.11625282186318       -0.07742765389587
C            1.30644098549122       -0.22508636633701       -0.81576436887763
O            1.81345390020999       -0.16006348569068       -1.95070229685545
O            1.00589443491275       -1.29734894307310       -0.23116608831564
H           -0.00244936435250       -1.31038858337640        2.90021933572412
H           -1.27404722189743       -1.10290110724817        1.87608279221823
H           -0.93056771921817        1.01659767609276        2.77003100574326
H            0.82477301759461        0.85781593171570        2.58206902539544
H           -0.39265436165360        2.33059077459526        0.87337917869964
H           -1.04749699064271        0.84939668353668        0.18403645416784
H            1.95317551911472        1.25899974516603        0.56228966878631
H            1.11827223653905        1.88315423214294       -0.85330950538660
H            0.28164087023154       -1.16943260820601        1.20266393257924
O           -2.87410773370228       -1.98718163711818        2.08216281836805
H           -3.14652689625275       -2.51898924129648        1.32874833802447
H           -3.60203372535836       -1.39805331889089        2.30382316195448
O           -1.07195488015403       -2.33637524023903        4.30972732839647
H           -0.98924333153557       -3.14164176282238        4.82650970494624
H           -1.76479715926488       -2.48843013068783        3.64793364099716
O           -2.75224767112488        0.86158879276897       -4.59646603951624
H           -2.88695101698166        1.81445973011862       -4.43443772944775
H           -1.82440153224545        0.75802369118961       -4.82858077395095
O           -3.03565887752198        3.35360531977936       -3.37185734420543
H           -3.23215537928043        2.76399912061660       -2.62018068754819
H           -2.32375914068307        3.93259069462523       -3.08480388899061
O           -4.63312719699571       -0.34209022516903       -6.34999201013652
H           -4.19978520455975       -1.16375318136170       -6.60009633260411
H           -4.02444140198792        0.10874591300073       -5.73860788285369
O           -3.49242966628722        1.05708980018104       -1.82547880007434
H           -4.41441923518247        0.81340048922641       -1.69380920774742
H           -3.23238988664003        0.67204807145875       -2.67734415369194
O           -1.92918774466367        0.32654496207228        4.78930299744467
H           -1.60234567998256       -0.58925391563129        4.75913724757080
H           -1.78187067887897        0.63820155125266        5.68529846741840
