34
 energy: -56.708794727310 gnorm: 0.000155056482 xtb: 6.7.1 (edcfbbe)
C            0.97907504946768       -0.26630299352007        0.44108446348257
C            0.41083666091179       -0.21120040927113        1.87900534313781
O            0.85966446339222       -1.07294752489115        2.68593754322207
O           -0.41151434090164        0.67122068466926        2.16475192338303
C           -0.02436858475492        0.18897265533670       -0.61080978213705
N           -0.68776929105466       -0.96914712968207       -1.23872785339282
H            1.84294918783275        0.40000380226718        0.46026460840678
H            1.34043132688240       -1.27327629984627        0.23965316882239
H           -0.75974123365930        0.82600081425148       -0.11089664782060
H            0.47709003230044        0.76489689113925       -1.38814940271228
H           -1.09493555850052       -1.61561180824627       -0.52444197169288
H            0.01804035376930       -1.53464010894119       -1.78641873579738
H           -1.43080026233176       -0.66481461036495       -1.86768302114243
O            0.23789845344159       -2.70150216448952        4.82540097847144
H            0.40011654093715       -2.00158865146045        4.16533164396678
H            0.93904584048772       -2.59195396872415        5.48900012852718
O            2.18510965011009       -2.12701277763480        6.81682842773545
H            1.94451151689227       -2.25821703387250        7.73989526951159
H            2.59642701887751       -1.25952724226111        6.74986842018427
O            2.29895962688369       -3.67454933258503       -0.38722742654100
H            1.70719499110207       -3.75444092896227        0.38216581132113
H            3.19084679660720       -3.83271230983209       -0.06899361468604
O           -1.63206069081800       -2.92058509729154        0.43732041614635
H           -2.37049020204447       -2.92091789910054        1.05024596784327
H           -0.85561739946598       -3.25685756376684        0.92443926855123
O           -2.35841753256623       -2.79694405967898        5.86723694328735
H           -2.64626749103490       -1.89328068294512        5.70548167122453
H           -1.44834184253527       -2.85122031014870        5.51879176824558
O            1.12512260239864       -2.47835137699982       -2.57149845132752
H            1.63750478173134       -2.89106715630462       -1.85306685300441
H            0.75977653084553       -3.20149392783264       -3.09037605081382
O            0.64992181310295       -3.59208739442996        1.84607633287584
H            0.58899367879840       -4.10918376586387        2.65624117657574
H            0.80666651287722       -2.66684431868941        2.14979553614707
