37
 energy: -59.861599414531 gnorm: 0.000280580522 xtb: 6.7.1 (edcfbbe)
N            0.30625180221018       -0.54377729180174        1.86851819229585
C            0.42177026224768       -0.86045509087555        0.42433371045589
C           -0.22227791139895        0.21689711057073       -0.43893057878721
C           -0.05628473177297       -0.17793793220090       -1.90108460754530
C           -0.94657217851609        0.60394923863631       -2.87531603001904
O           -1.34894445844524        1.73874996954331       -2.58146818997919
O           -1.22063074981642        0.00250256144857       -3.96160839393579
H            0.76439019632690        0.35108179799198        2.07324167015490
H           -0.68545966158431       -0.47279602969177        2.12190114939129
H           -0.08280047012703       -1.80746467446563        0.22286766763886
H            1.47140526302769       -0.96140589220009        0.15157617346590
H            0.22776503154514        1.19773097871798       -0.28098804519929
H           -1.28966856580390        0.30077676361635       -0.22676428121650
H           -0.28700848282866       -1.23567554706893       -2.02510113615176
H            0.97369902572119       -0.02249117338647       -2.22814067684262
H            0.74030769362885       -1.28821834989372        2.42503246545468
O            0.76531979013215       -4.41760893718486       -2.12347939079211
H            1.43179984556906       -3.70326239280074       -2.15294646044960
H            0.38481559220372       -4.43316088904994       -3.01693642140531
O           -0.55820634054962       -3.96782864598434       -4.58533786075760
H           -0.94070204312191       -4.51781614151118       -5.27489732247631
H           -1.29590581616400       -3.47434284148010       -4.17071883384005
O           -2.44350206765542       -2.34903499303532       -3.44984128261580
H           -2.01970170749715       -1.48510966375881       -3.65293386105842
H           -3.35233404942821       -2.27779232894940       -3.75670064278963
O            0.87391483220444       -1.60431672130721       -4.74175330091074
H            0.14900281315578       -0.98033034265535       -4.53434055152269
H            0.44105364660306       -2.47983668921768       -4.80560261920467
O            3.14315451191713       -1.11625710461549       -6.33177200965063
H            2.99787331044036       -1.64509940669645       -7.12254837177022
H            2.32519084957458       -1.18633295279040       -5.80969344606447
O            2.45611496935834       -2.25926302843247       -2.56689570066361
H            3.35487561361895       -2.37244371114073       -2.88867198842116
H            1.93321381930264       -1.95996105066183       -3.33702169167473
O           -1.34999010762683       -3.24716255496684       -0.82408540923652
H           -1.86007404871486       -2.98718610830832       -1.60210864672038
H           -0.60624047769526       -3.78016093439578       -1.17780327713982
