37
 energy: -59.880323071416 gnorm: 0.000270145142 xtb: 6.7.1 (edcfbbe)
N            0.00711265918043        0.51894566802819        2.35540770140147
C           -0.35773785523416        0.02187090596668        1.01114276233731
C            0.56970834244015        0.64616739667923       -0.02465409030504
C            0.53608571281857       -0.08153847213227       -1.36784142690353
C            1.49821920586908       -1.28553285713574       -1.41143719416437
O            2.67955916952551       -1.08148450009222       -1.01733312861921
O            1.07116208897786       -2.37249449557610       -1.83796977736511
H            0.84005592970305       -0.00238867298334        2.71485682152171
H            0.29695467242842        1.52356417608700        2.29985289555288
H           -1.39137274437174        0.28344678889785        0.78402950599368
H           -0.26070139311291       -1.06418803315855        0.97740000520267
H            1.59386434733180        0.59616772527997        0.34342457256948
H            0.30553870187125        1.69101359353032       -0.18115301900847
H           -0.46293056963956       -0.43877234568771       -1.62238152787888
H            0.87330509511545        0.58910698874202       -2.16165224189343
H           -0.75971491236731        0.41066591179858        3.01903488976668
O            2.87535094105620       -3.25458802364421        2.37620792431520
H            3.38650214307811       -3.20830792326666        1.54400310887076
H            2.32081058409951       -4.03612456492820        2.30305929485283
O            3.78863288794226        1.45370413462836       -0.43727979255686
H            3.87710884006954        1.40185906716099        0.54185919238667
H            3.46324614904033        0.57889906275326       -0.71632607526095
O            3.54172209405264        1.43137321708173        2.29259943467747
H            2.80002028302729        2.05399048855828        2.40225254887994
H            3.20718082804397        0.58126611424423        2.62853873269486
O            4.16870324789887       -3.07992760964409       -0.02058786840768
H            3.61343490282422       -2.40481251890782       -0.47712040455021
H            5.07826752817591       -2.78293310270503       -0.12488849302628
O            2.04345921916725        3.54144139894068       -0.30710456726444
H            2.65776232574183        2.78859322259130       -0.45352778275221
H            2.54861879464647        4.33282180602659       -0.51160732462462
O            1.18440996352639        3.00893613419426        2.21607255696342
H            1.42661753857372        3.22730608030809        1.29109973785051
H            0.95113747503741        3.83513993943315        2.64689370064373
O            2.21303954387960       -0.80275100249543        3.34234311096938
H            2.31211958750302       -0.91844806103819        4.29272134419567
H            2.45186067212676       -1.65899463753091        2.93910387292497
