37
 energy: -59.870747477829 gnorm: 0.000521634846 xtb: 6.7.1 (edcfbbe)
N            0.71185852720170       -0.25375919699442        1.75936564300666
C            0.02851300633850       -0.86017950116773        0.60206436967752
C            0.27003298969116       -0.04233293351787       -0.66224857751534
C           -0.41401564687912       -0.65075924175184       -1.87916719555727
C           -0.40980157184023        0.30463020660134       -3.10585762242823
O           -0.38660942663584        1.53413431998393       -2.88717520257543
O           -0.45587279086440       -0.23767784992010       -4.23272208715720
H            1.72956326343165       -0.18551209201176        1.56554802082704
H            0.35549955945574        0.68893813360988        1.92149391513453
H           -1.04181910437288       -0.91725578211790        0.80016476734607
H            0.40905817310015       -1.87094077343444        0.45814212929307
H            1.33966885692208        0.02998084116544       -0.86684698732851
H           -0.11576880649872        0.97439843862555       -0.55647660510073
H           -1.46945292442278       -0.84912921062235       -1.67178197732418
H            0.04910630047468       -1.58615379336744       -2.19620675990431
H            0.56910567897954       -0.84846999715386        2.63244485641642
O            2.16266344509127       -1.54202242739569        5.94721470405807
H            2.45314147678098       -0.74338614623013        6.39535059410203
H            1.55482353874763       -2.00445122213191        6.55199334132093
O           -3.07783956002353       -3.19941120676598        4.90982944658284
H           -2.71625194016690       -2.34736371220984        5.22014741269855
H           -3.58424073239179       -3.01260119337482        4.11523601605916
O           -0.49585663228293       -4.20783471702728        4.99615095528009
H           -0.12282814591463       -3.55156058833636        4.37720311011000
H           -1.46103100244247       -4.07565271335528        4.94621592381821
O            0.32720310575892       -1.74210160429761        3.94022647580044
H            1.10483141133162       -1.68695617659249        4.53170802961621
H           -0.41123669495226       -1.39240955264720        4.47273272485157
O            0.02846696337485       -2.81333720584218        7.20841362419086
H           -0.11251323238976       -3.43749585499858        6.44910068358469
H           -0.12584290323106       -3.32204956017314        8.00714427541630
O           -1.57579128943373       -1.03707759684006        5.84166565815387
H           -1.05768920253993       -1.58743489281915        6.46403237924808
H           -1.80123204617382       -0.22523335044268        6.30233581527202
O            3.44487172591254       -0.08838420740162        1.18277819547832
H            3.97811933307282        0.70765185531635        1.24832470077955
H            4.02916129778866       -0.84307149431523        1.30046424679629
