34
 energy: -56.710908222738 gnorm: 0.000393754804 xtb: 6.7.1 (edcfbbe)
C           -0.23394283200338       -1.45584771537065        1.03406075714807
C            0.65566422246658       -1.14134327594979        2.24258338496246
O            0.38692155754718       -1.78238585715017        3.30808256063393
O            1.56747969892426       -0.31017860191140        2.14540943774218
C            0.04167478062266       -0.54541536833795       -0.14910073480827
N           -0.85365743626732       -0.89516083665550       -1.26802658570391
H           -0.04825979450936       -2.49794600787593        0.76998735561785
H           -1.26996861437380       -1.37095052131705        1.36491864630717
H           -0.11382679468198        0.49179321140705        0.15021585071095
H            1.08445445706778       -0.65316293005711       -0.44867382106527
H           -1.84362750674429       -0.82166683902540       -0.96127196626166
H           -0.69799142179114       -1.89431614618764       -1.56539268581356
H           -0.70460283273906       -0.27971196366070       -2.06790225304114
O           -0.60283693351308       -4.34841046067491        2.81742765151142
H           -0.13383332393059       -3.52984336396288        3.06404642451681
H           -1.52514087142658       -4.17995695179845        3.04573536387646
O           -3.50867674787696       -0.78365606253416       -0.41504872244524
H           -4.03526325367802       -0.09812241719644        0.00324427224832
H           -4.03839080388852       -1.58485132487195       -0.44521402926099
O            0.24834179660108       -4.88454453141190        0.26568627643578
H           -0.12474046378276       -4.77968654713824        1.16226146869411
H            1.01007959019988       -5.46184098883813        0.36340439518102
O            3.29830181795577       -2.58863377987422        7.17347699694585
H            2.94578099877909       -2.07464851970518        6.42618853696036
H            2.83057994772374       -2.26628115181374        7.95053020916814
O           -0.50414161643056       -3.48715594205418       -2.01554842136725
H           -0.34850051954452       -4.03504112033300       -1.22774923831018
H            0.15612620082366       -3.74406978829794       -2.66535977828504
O           -2.32638184712053       -2.00724812333648        3.82533935257586
H           -2.51188643174961       -1.80230530601117        4.74586516477234
H           -1.36676437434276       -1.87420749392594        3.71071203546904
O            2.18611045049794       -0.94269804696539        5.17539173100320
H            1.51884671127905       -1.28831518646712        4.54032301506452
H            2.72264718995566       -0.33316704062467        4.65794934877206
