46
 energy: -75.167812939371 gnorm: 0.000181335479 xtb: 6.7.1 (edcfbbe)
N           -0.32849940583430        1.08179859502654       -0.39401113160188
C            0.60376966407479        2.13921653425262       -0.80551800211713
C            0.33895642578031        2.58551621877893       -2.24366563229056
C            0.87009640203041        1.62816857578488       -3.32385863658432
C           -0.03646384307021        0.44224806483478       -3.64978714705633
O           -0.38871308757861        0.26561111470183       -4.83794271926933
O           -0.39060161005492       -0.32273906040174       -2.71833002897056
H           -0.06949308214356        0.66417721516358        0.54434301080671
H           -1.30047580294280        1.44511309761714       -0.37993976118578
H            0.48307403325273        2.99312555293069       -0.13869359308828
H            1.62515504503713        1.76723652629519       -0.71205480005020
H            0.82982742241065        3.54658626653283       -2.39735528254711
H           -0.73351325201662        2.73742652329195       -2.38003344796670
H            1.83452684399026        1.21823883145543       -3.01304774059214
H            1.01804801281631        2.16857209558405       -4.26071355122802
H           -0.30391247973497        0.33636781887975       -1.11514214896426
O            0.40589077400927       -0.13026869932900        1.87632808647903
H            1.00084933081857       -0.81220740245740        1.50574889794736
H           -0.38579026411179       -0.61987060765325        2.17455133427469
O           -3.06006142588113       -0.52003199968774       -2.18606756134938
H           -3.47105520779183       -0.62474367497025       -3.05495726951782
H           -2.10011698369623       -0.52990908966055       -2.37633952252630
O           -3.09727255699857       -0.44587376417596       -5.04083567480967
H           -3.53853001958520        0.06087189056930       -5.72831518669190
H           -2.17324714617601       -0.13478210188165       -5.02497111709771
O           -2.95303710717464        1.89069683396960       -0.85603064560688
H           -3.14825385456834        1.06617235350697       -1.34337743032005
H           -3.66617914648612        2.01458235964495       -0.22412955312676
H           -0.09860875930188       -1.89235551585360       -1.90512611140957
H            0.10638030184123       -3.41068860354830       -2.05890834118116
O           -0.01006326011237       -2.71229101407371       -1.38993563317260
H            1.18185818591133       -2.36089698606098       -0.11328359438068
H            1.93098664941004       -2.95733147765152        1.10305394803570
O            1.79680680330394       -2.14067604962349        0.61511999622546
O            0.30602358130170       -4.26178449560239       -3.64799459363288
H            1.12344525934780       -4.57865494143340       -4.04225519830198
H           -0.10111465238706       -3.66449336210997       -4.30562239712314
O           -1.88536777900226       -1.56075780859149        2.36912676816994
H           -2.70959661915264       -1.27910261365418        2.77330623297902
H           -2.11992395435013       -1.91767733768628        1.48483886770748
H           -1.60803856137296       -2.64752117297237       -0.53436678648110
O           -2.47321469728691       -2.40702792312009       -0.15083085577858
H           -2.85906398666265       -1.78202839681999       -0.78718483665232
H           -1.75917898715494       -2.43769260973362       -5.47097586581955
O           -0.79564216670959       -2.44824915346267       -5.42280086960485
H           -0.54377392250715       -1.51971391738695       -5.26079526636246
