37
 energy: -59.859537754576 gnorm: 0.005949268031 xtb: 6.7.1 (edcfbbe)
N           -1.15539843692418        0.90830627565583        2.71810115906119
C           -0.98091062116855        0.12415258770845        1.48150997393627
C            0.10716367676461        0.73693692774182        0.60808315781286
C            0.32375313056782       -0.07831941984329       -0.66170215721685
C            1.00405013504933       -1.45753155824074       -0.43554631991695
O            1.30194331626843       -1.79199498625857        0.72945443930842
O            1.20938750473630       -2.14030393134507       -1.46642575328140
H           -0.25451539669708        0.96211842087007        3.24463002203390
H           -1.42407289175222        1.90396588180928        2.49671408764803
H           -1.92203312565193        0.09692795431098        0.93046652257278
H           -0.68060582063864       -0.89811523250629        1.71870871779588
H            1.04776895098885        0.74660825028272        1.16157552424565
H           -0.15999406698614        1.75857285866250        0.33601815732521
H           -0.61824856818536       -0.28073576805640       -1.17532676023724
H            0.96965388782422        0.45438158811034       -1.36309292454507
H           -1.85816698678934        0.48379223479838        3.32470404718871
O            1.08863636920588        1.40771868411196        4.22836556815287
H            0.91312218619886        1.43568058749754        5.18518195849195
H            2.01252566546165        1.16394373530750        4.11875003721004
O           -1.25804444107160        1.81427146294598       -6.24587173151737
H           -0.68195752979437        1.43999232803253       -6.92036611963302
H           -1.36002731414648        1.14688715252662       -5.56060940557897
O            0.46025138796721        1.54101725131862        6.94399865568101
H            0.23641195687896        0.77230380011650        7.47822841856299
H           -0.07422385065551        2.27711674061398        7.25841329555198
O           -0.64929978953350        4.42230121768575       -5.43524238188133
H           -1.11820872067100        5.04200238911357       -6.00272686852580
H           -0.91831269720295        3.52898603303714       -5.71693146894738
O            2.07295297737211        4.64556784139578       -4.68555386483435
H            1.13545264039228        4.63411757863312       -4.94522823452197
H            2.28184016202607        3.74856284395098       -4.40344848351597
O           -0.55356085179794        4.13357382982518       -0.21454715417416
H            0.24119429763675        4.65493646324757       -0.37154745489698
H           -1.15224700755767        4.29754503095661       -0.94890485666145
O           -1.51794169563790        3.57974539230927        2.33736890519087
H           -1.26893626333819        3.81286244410456        1.42590618544216
H           -0.79069016908141        3.87263210963228        2.89454310663952
