37
 energy: -59.876571591097 gnorm: 0.000509570258 xtb: 6.7.1 (edcfbbe)
N            0.04213277503537       -0.71860931018486        2.00382480705940
C            0.63913704402606       -0.78203890430319        0.65863851185166
C           -0.08754469248566        0.11017005949047       -0.34218112888733
C            0.66234645179032        0.12608211750680       -1.67620631463754
C           -0.20674490610120        0.77591391758866       -2.77155627219441
O           -0.06132959626454        1.99089136856590       -2.99877018019885
O           -1.03123005784352        0.02776059543538       -3.36193629407904
H            0.11189362273128        0.22087715929266        2.39518270938262
H           -0.97000938322891       -0.98768456750979        1.98818015084731
H            0.58889213998513       -1.81214308632131        0.30868251572210
H            1.68530948396392       -0.48020992243579        0.71269193314933
H           -0.16572069556127        1.13725319775599        0.02011523392464
H           -1.09878787566433       -0.26176263695237       -0.51662443394419
H            0.89171677947863       -0.89356506383450       -1.98724836491665
H            1.58517585630398        0.70181483093723       -1.59471646520123
H            0.53050456451086       -1.40910165057717        2.62580450149868
O            0.82757974900521       -4.07529514151488       -4.39373967765718
H            1.13458020528479       -3.52336158693175       -5.11810304436630
H            0.15046294745668       -3.55292021200709       -3.92582998337990
O           -0.05012659759458       -3.82308421623217       -0.65704699234583
H           -0.34302342260201       -3.35901444236212       -1.45818089190021
H           -0.54092342583551       -4.64968551202244       -0.63381669902240
O           -2.52109153583526       -1.54556024999234        2.42991501932199
H           -2.22158926424358       -2.20073432875897        3.09703950895516
H           -3.19195164816813       -1.98068461302760        1.90070997211229
O           -1.34197460921309       -3.24947196851218        4.20530359892406
H           -1.35204820628511       -3.06198614180318        5.14771019850672
H           -0.40870832500236       -3.22328273028882        3.92794587221825
O           -1.09739172757900       -2.59597031036418       -2.97486139672810
H           -1.03057071329477       -1.61555938937539       -3.10816365646341
H           -2.00220128978099       -2.81529594128962       -3.21971473904856
O            2.17300018655331       -3.82899729490883        1.03874124154118
H            1.44474944892068       -3.87466981022781        0.39656277778976
H            2.97956318431911       -4.02731311677261        0.55775250982203
O            1.30549258037063       -2.71488901485009        3.38087454496282
H            2.07932652756151       -2.57102009216001        3.93370427800327
H            1.61446142527110       -3.20238799104957        2.59377064939382
