34
 energy: -56.712413942799 gnorm: 0.000727614986 xtb: 6.7.1 (edcfbbe)
H            1.41351128641495        0.91248458174447       -0.29651793003183
C            0.75331373025113        0.21382218455588        0.21924855282718
H           -0.00975439049374       -0.73606686220424       -1.46312434692225
H            1.30280092451932       -0.69253294052327        0.47598856057314
N           -0.35688187770924       -0.15733145464015       -0.67418468529595
H            1.00985306344587        0.84863905877952        2.27544048728074
C            0.24654959299387        0.86659871991551        1.49730472197241
O           -0.16535138873854        2.82927750149384        0.17828897621896
C           -0.17414230404439        2.33712951027257        1.32731346292383
H           -0.83805035183030        0.67302319411662       -1.06717731520607
O           -0.51364356223595        2.95893196297632        2.36337786718664
H           -1.06326017750088       -0.70937614791613       -0.13619012970652
H           -0.62291656652488        0.33299120859334        1.88486959934500
O           -2.06607821644808       -1.67293411016779        0.86668959276331
H           -2.75620881860738       -2.20596672268096        0.46255423635107
H           -1.45814617617003       -2.29565013014342        1.31910934832155
O           -1.95536775589199        1.60366801919429       -2.20580679082185
H           -1.60968603084148        1.90555154872644       -3.05147322651722
H           -2.22047655672128        2.41027045247522       -1.73479653560040
O            0.57002803227218       -1.75302595207038       -2.78012277199578
H            1.18394631319625       -1.41306291576745       -3.43651445211320
H           -0.10168822670137       -2.26286315229483       -3.24256346889174
O           -0.24941685131911       -3.25995918883583        2.13964056193419
H           -0.22069191167400       -3.13365876601541        3.09192219858391
H            0.63765332401887       -3.03112989689611        1.80548748859743
O           -2.30158613184264        4.04737908555792       -0.88732418206230
H           -2.87901291626707        4.33012897421259       -0.17312181551443
H           -1.45780226590020        3.77298494291089       -0.46364852706843
O            0.17125782909729        1.83460040431018        4.74051280457041
H           -0.32870476105794        2.29154654259895        5.42306966100736
H           -0.08791074889310        2.26463538255776        3.89513509758888
O            2.35004605414509       -2.64668764976244        1.27850266348175
H            2.69851446249903       -3.23663286598339        0.60261795521919
H            3.04495537443802       -2.52898551911775        1.93277834107059
