34
 energy: -56.717403514370 gnorm: 0.000277639421 xtb: 6.7.1 (edcfbbe)
C           -0.38120938241905       -0.68787708213246        0.49981404145128
C           -0.62531000131597        0.32740107535794        1.63769493994079
O           -0.86096426009297       -0.15753145625456        2.77930932580961
O           -0.59194937342196        1.54176396894343        1.37807796043474
C            0.27189407756438       -0.05219063642488       -0.71514365911607
N            0.41166081735995       -1.04581698706241       -1.79125949055400
H            0.24040635216409       -1.48912783429025        0.89632271082031
H           -1.35753822599474       -1.10527462264343        0.24709178750950
H           -0.32750331272074        0.79865592255283       -1.04215560279444
H            1.25357029689580        0.32815508433623       -0.42975529547573
H           -0.50605746059734       -1.32989165387246       -2.19258186890891
H            0.83765348229847       -1.94762267242479       -1.42918530934037
H            0.99337111250673       -0.71562880416101       -2.56382499123180
O            1.10134960027980       -2.68145070986181       -4.00356547197833
H            1.40932826186495       -3.25791212966237       -3.29358572704834
H            0.13444900568643       -2.70754970389221       -3.95699432374111
O           -2.45490901515349       -3.42798905970352        1.15809946279097
H           -3.31448204987944       -3.42953658664461        1.58539805521089
H           -1.79424146522765       -3.24273418761161        1.85052590423624
O            1.66352992584939       -3.35888328723193        1.71586948493313
H            0.86319713514838       -3.23172924953397        2.25704194171888
H            2.40670235190034       -3.05368139690690        2.24156439771484
O           -1.65029202080775       -2.38507773235222       -3.03073350200581
H           -2.56698332311014       -2.21750048608353       -3.25870084527282
H           -1.63758848396210       -3.15030034354318       -2.42291450036553
O           -0.65146249073578       -2.74837143997171        3.14673336716109
H           -0.72783425230681       -1.76180366475813        3.02037074266909
H           -0.79774212564357       -2.90454987775348        4.08430950175353
O            1.19814394367259       -3.51397575100063       -1.04263039381848
H            1.46836785623564       -3.54890083633981       -0.11155270158665
H            0.30644654776101       -3.91299160107681       -1.07164144921828
O           -1.42914060169314       -4.39577757272573       -1.17406340973370
H           -1.67004597174316       -5.32425351341755       -1.22717662941954
H           -1.80957695037492       -4.05191017180262       -0.34366145254670
