34
 energy: -56.709861242529 gnorm: 0.000288967214 xtb: 6.7.1 (edcfbbe)
H            1.24713863023963       -0.14867094516623       -0.92102965061735
C            0.18305318640426       -0.34583119647728       -0.77922394363247
H           -0.27193811748106        1.22771030495824       -2.10252277620660
H           -0.11291984809519       -1.19191304465031       -1.40139096308133
N           -0.58054040682831        0.84934003382554       -1.17047805946125
H            0.42966271717505       -1.55809314695591        1.01293741147460
C           -0.08468209128317       -0.65401894706292        0.69072178145454
O            0.17971773549243        1.66979797603116        1.25675406283693
C            0.36281276643021        0.48808723067964        1.64246931680460
H           -0.39763983107523        1.53557510707570       -0.40816024772753
O            0.85638555568667        0.15660958888995        2.73772438279042
H           -1.60268837574308        0.63238886001781       -1.18196645691530
H           -1.15671975481328       -0.79022540659363        0.85074001982363
O           -1.25936839935510        0.33041255841408       -5.39174551233671
H           -1.06006967023887        0.36187612227833       -6.33066752587205
H           -1.23949545944361       -0.60733638684790       -5.12847188902803
O           -1.03007994358387        4.33299222810401       -3.93955907910253
H           -0.83117388796615        4.96422453506459       -4.63690313988520
H           -1.36308071850972        4.82862781731873       -3.18578758231776
O           -0.18585132566478       -3.35596848353677       -2.38127961605342
H           -0.67242636494845       -3.91668347014841       -1.76992731810727
H            0.69832640009274       -3.72478942954203       -2.46769456535326
O           -3.25097021937475        0.19322007655291       -1.16227885928726
H           -3.88781342129215        0.87546399365851       -0.93758050162310
H           -3.44166852447386       -0.06875358398961       -2.09319412637831
O            0.19035538401285        1.80911795505562       -3.58668957124537
H           -0.15291359072029        2.71012877850950       -3.69712948805716
H           -0.28337460616578        1.26990690138374       -4.25183679617973
O           -3.56229546711539       -0.40099766897302       -3.77480170979188
H           -3.10381068573155        0.28649825995330       -4.27797306272474
H           -3.04376629316239       -1.20549906392889       -3.94679592667484
O           -1.61286324543416       -2.30458957285072       -4.52017475132917
H           -1.08592533882074       -2.59770149158316       -3.75521367118543
H           -1.75178478823393       -3.08064248945229       -5.07049218501670
