! Opt B3LYP D4 def2-TZVP TightSCF TightOpt CPCM(water)

%maxcore 5000

%pal
nprocs 10
end

%geom
    MaxIter 500
end

* xyz 0 1
N          1.71506       -0.27228        0.71801
C          3.12597       -0.14091        0.35682
C          3.28528        0.61836       -0.96719
C          4.76705        0.75773       -1.34612
C          4.97966        1.49440       -2.64236
O          4.03851        1.92013       -3.29480
O          6.23445        1.68912       -3.08912
H          1.28546        0.67394        0.83625
H          1.20220       -0.80386       -0.02252
H          3.57501       -1.15466        0.26041
H          3.66141        0.40500        1.16541
H          2.83510        1.63040       -0.86421
H          2.74975        0.06589       -1.77057
H          5.21688       -0.25398       -1.44354
H          5.29980        1.30890       -0.54126
H          1.63953       -0.79310        1.62147
O          5.51744        4.52008       -0.82540
H          4.80810        4.14221       -0.24697
H          5.17622        4.39952       -1.74704
O          6.01023        2.10109       -6.30742
H          6.92749        2.15293       -5.93786
H          5.51501        2.82260       -5.84398
O         -1.51202        0.94587       -0.13928
H         -1.43289        0.46340        0.72187
H         -1.11093        0.33244       -0.80516
*
