25
Coordinates from ORCA-job 00_Aminobutyric-acid_zwitterion E -592.392719280654
  N           1.75019265701864     -0.48711090630771      0.50598377845288
  C           3.22027748680783     -0.21455574776220      0.40954267923176
  C           3.60968111540368      0.06292571999914     -1.03260466358320
  C           5.01355564456088      0.66266423401943     -1.13968232592201
  C           5.28332477385357      1.23952846083151     -2.53262491667053
  O           4.50714260110238      2.18608498343301     -2.90377960940107
  O           6.21487988844827      0.77914650677237     -3.21510070360298
  H           1.22547374225642      0.36447280925431      0.19289377350774
  H           1.47514267558167     -1.27687741422947     -0.07885136176291
  H           3.74716548906464     -1.07181180150126      0.82505328097941
  H           3.40937266745660      0.65227584702913      1.04168558456850
  H           2.89349959284084      0.76252439625638     -1.46209606137878
  H           3.54770069048255     -0.86055704740534     -1.61527477388869
  H           5.77338855519378     -0.08151152098732     -0.90039953405308
  H           5.10671609327190      1.48255816394037     -0.42056983685215
  H           1.47264042938624     -0.70283111737324      1.46321977973397
  O           2.74834256600582      3.43496750587562     -1.33527592557448
  H           3.24687022525073      3.88192224327910     -0.64087157798376
  H           3.42460206348268      2.95116056506910     -1.88821126351960
  O           5.04788254808344      3.25811295796648     -5.34073254612915
  H           5.77816187300289      2.75573487888918     -5.71939465442441
  H           4.88277516931708      2.83719517693971     -4.45975566141023
  O           0.70300102702408      1.96155432615259     -0.28443486872053
  H          -0.00446199326443      1.94834988366101     -0.94089467053082
  H           1.43244241836705      2.49929689619784     -0.68238392106563
