22
Coordinates from ORCA-job 02_Alanine_zwitterion E -553.089646120919
  O           1.46919685668254      1.61386709354944     -2.69608679938790
  H           1.60398138261794      2.03080071053228     -1.80924759730079
  H           1.52356151694463      2.33578184696838     -3.33476931948857
  H           0.75730402986328      2.34882210156718      0.04544386076534
  O           1.69116256232736      2.62717095222088     -0.16873524943229
  H           1.68931280612401      3.59198769189031     -0.15206940239777
  H          -1.83220390525287     -1.04525547806884      1.42605070556386
  O          -0.92009136265294     -0.73946652890916      1.48905000109927
  H          -0.89576634651539      0.10385908933313      0.97658659307150
  H          -1.02641286661699     -0.71450399661781     -1.26910757137944
  C          -1.68921182676805     -0.25629364705173     -1.99926589165238
  H          -0.45569064732009     -0.68171883314134     -3.63027116265673
  H          -2.38860273681751     -1.00708536258795     -2.36150121994136
  N          -0.83815987438779      0.14385923018843     -3.16891005282927
  H          -3.07259914140956      0.55323778225245     -0.61822311373872
  C          -2.43067242729091      0.93466186513319     -1.41594030079814
  O          -0.72928107681472      1.60405024728342      0.11667986116602
  C          -1.50009394980405      1.99989839392736     -0.82121608757177
  H          -0.01995171520173      0.74714861317321     -2.90438878288045
  O          -1.53458838564165      3.15167783140948     -1.28205662233687
  H          -1.38737063583608      0.64811101963038     -3.86624302274970
  H          -3.07086225622933      1.38800937731717     -2.17383882512368
