34
 energy: -56.705019641518 gnorm: 0.000304472127 xtb: 6.7.1 (edcfbbe)
H            0.91533151706313        0.09989578219654       -1.37685205835225
C           -0.14293587665669        0.12415579908802       -1.64000857694015
H            0.13978720096161        1.84690250726134       -2.80907312579354
H           -0.32762121800262       -0.58272867415077       -2.44994167304936
N           -0.49381783633146        1.49102560125529       -2.06889364309380
H           -0.75020975429385       -1.26913064191750       -0.09889227966876
C           -0.97090570201619       -0.25126247372834       -0.41682670261136
O           -0.37203943697712        1.86359367167441        0.56222591898239
C           -0.74316423946356        0.68979658636496        0.78163322222597
H           -0.41407784952919        2.06203242111045       -1.20063625079698
O           -0.96787986703874        0.23008601035242        1.92950650582752
H           -1.47678997799998        1.52641435208881       -2.39736473015912
H           -2.03663673274842       -0.20176618747964       -0.65150836479026
O           -2.27638362514678       -2.17252881074242        2.26501425194344
H           -1.84206006744061       -1.29706325144868        2.23186061513028
H           -1.78782018523852       -2.71629629538341        1.61962390213302
O           -0.37252283046142        2.24850651742572        3.71826892715787
H           -0.14119736110003        2.93900904350212        3.08711479994062
H           -0.60906329253474        1.47567177591562        3.16242458828622
O           -3.19668674067427        1.57685699252512       -2.81897854591500
H           -3.50325831137712        1.38478807562742       -3.71079202778023
H           -3.73073357802206        2.29910755928979       -2.47760118488229
O           -2.30271749537486       -3.43434167451907        4.74383284673042
H           -2.36705781959287       -3.01284781662200        3.86417864720664
H           -2.09300670219264       -2.72211876752101        5.35483773064680
O           -0.41562481628785       -2.16006417837530       -4.06918823490626
H           -1.23411231556344       -2.61982376229834       -4.27773505167465
H            0.29318902965169       -2.80775824934156       -4.11637749920138
O            1.28801485542854        2.45516344197261       -3.98430463112000
H            2.04089878311709        2.97576936591156       -3.69104320458472
H            1.56537415869186        1.93644300644916       -4.74511640650114
O           -0.75849481888195       -3.71399867614669        0.46044600171103
H           -1.27172274133510       -4.41156779961347        0.03797099922427
H           -0.04583135265059       -4.14297125074593        0.94491123468675
