37
 energy: -59.878346437772 gnorm: 0.000334716328 xtb: 6.7.1 (edcfbbe)
N           -0.04565008832826        0.51329362089118        2.71248720770728
C           -0.30099152848652       -0.34258955359975        1.53999690690479
C           -0.29388105714784        0.40628323315547        0.21504602718782
C           -0.47308825596330       -0.62309755464930       -0.89169421338750
C           -0.53753858312304       -0.08565304451482       -2.33214495467129
O           -0.45825981275990        1.13768107712526       -2.54425340421647
O           -0.67544076677989       -0.96906563815372       -3.22493862198802
H            0.86491793623213        0.99354386179537        2.62577443852758
H           -0.78743614356877        1.22487286213951        2.82504633365879
H           -1.26816043996233       -0.82727067877067        1.66659723888501
H            0.46794049323103       -1.11280810266913        1.50078929809180
H            0.64686734644454        0.93544311426023        0.06020255220835
H           -1.10058503879480        1.13714273174546        0.15498726902638
H           -1.39854331192163       -1.18351767684292       -0.74105102127430
H            0.34834669630338       -1.34300745173839       -0.87739621696069
H           -0.03301170806344       -0.11071142307947        3.53961141118045
O           -2.09715293996987        2.41185449649487        3.08152661185065
H           -2.05308889008026        3.34076431973148        2.84316350271771
H           -3.02290802486430        2.17475687827551        3.18114117666607
O           -0.88217709802848       -3.82452504037258        0.82957725292975
H           -0.00887078837180       -3.59934344689436        1.20524893319408
H           -0.82173233797958       -3.67865767175468       -0.12390792572641
O            2.46206165585231        1.80411054279010        2.50449680368509
H            3.31029695480284        1.35401041326126        2.47282440537084
H            2.62378940501878        2.74687073614596        2.42056911846114
O           -0.76511780557924       -3.45764206511533       -2.13041095766038
H           -1.06729961505937       -4.07175249969097       -2.80574013555847
H           -0.73021758714969       -2.57474995122462       -2.56707762930823
O            1.34410554747432       -3.05330650743992        2.36454260145078
H            1.94596173497109       -3.71059849417258        2.72239888087620
H            0.88198609527285       -2.65330444130753        3.12693426849639
O           -2.35172106351753       -2.63941337439189        2.81363239078629
H           -3.04866079622906       -3.23992459496241        3.08921920486738
H           -1.89782157616054       -3.07538750802502        2.06421920757282
O           -0.23922017187354       -1.76436556793003        4.31190661387002
H           -0.38703707188028       -1.95606516550139        5.24146359029869
H           -1.04281836397956       -2.05569043496291        3.83121283423777
