58
 energy: -95.534207285028 gnorm: 0.000209143022 xtb: 6.7.1 (edcfbbe)
N           -0.67850053314569        0.79209478257446       -0.35105856354545
C            0.41315684631128        1.74553597204525       -0.59153589452149
C            0.14258570844575        2.63450879420053       -1.80368354223938
C            0.46693873765022        1.99675704979485       -3.16564503858459
C           -0.61549913799997        1.08581460911131       -3.73108801424569
O           -1.10620807071833        1.35623804821548       -4.85055110334941
O           -0.97349325575285        0.08033506182701       -3.06441051452853
H           -0.46961155962726        0.22596929838113        0.50769967959912
H           -1.58802386542939        1.29170105625439       -0.21858299048701
H            0.52227087930948        2.36924319844273        0.29657626294330
H            1.34231765796547        1.19022058700715       -0.73115220904554
H            0.76627372419635        3.52399593279582       -1.71517308605585
H           -0.89850527134417        2.96342709274956       -1.78815662947918
H            1.38283756280803        1.40608205029295       -3.08609684647533
H            0.63040912406779        2.77916214175366       -3.90927043890394
H           -0.78276840316135        0.18247939935987       -1.17121465241870
O            0.18852059881755       -0.59021215399304        1.83407554003338
H            0.92290214159019       -0.96481992388721        1.30882282701202
H           -0.39852073464254       -1.33958976617796        2.04954062175763
O           -3.58734305836197       -0.10315126294638       -2.18222068411330
H           -4.14036713819007       -0.06014049125966       -2.96911493575886
H           -2.67465173952393       -0.01916180998851       -2.51635310631144
O           -3.69852333092264        0.41031002558628       -5.08742732978782
H           -4.16456981252217        0.89651103542674       -5.77206542022750
H           -2.79831731453850        0.79359891984708       -5.04319268038420
O           -3.22012241160656        1.84759269949817       -0.21505655609325
H           -3.55800089106777        1.25641099780970       -0.91165193925395
H           -3.40388106267548        1.37351573167497        0.61383378905907
H           -0.19991021284305       -1.43014280268534       -2.36574099648795
H            0.34058528343158       -2.87467080143886       -2.44842866981012
O            0.00270389643634       -2.20676225156876       -1.82111890639521
H            1.25332176648290       -1.83037852585527       -0.66942263824773
H            2.53685747984448       -2.31542204976408        0.06403574129212
O            1.93181935877610       -1.57443659895314       -0.00671656316870
O            1.03078676025235       -3.85552392579919       -3.74613514378798
H            0.86403628008081       -4.79984767527856       -3.81316140113419
H            0.69763354520853       -3.46589072421372       -4.58174141224448
O           -1.53275375367982       -2.72954563491401        2.13834542973903
H           -1.27059774825933       -3.64504959971243        2.25777242509092
H           -1.92767201652166       -2.66568629948179        1.25172821542178
H           -1.57389510993945       -2.16622844754940       -0.90728276205280
O           -2.41044344660418       -2.01750759329467       -0.42754579003192
H           -2.99230556589796       -1.56650093500126       -1.05734579513868
H           -1.04315404268265       -2.63658305736902       -5.46982362161528
O           -0.19821637288139       -2.80631644816744       -5.94113418596000
H            0.02804230884897       -1.95641580628387       -6.35096144297247
O           -2.30910379914445       -1.97301050216967       -4.44162952737793
H           -3.01741869740308       -1.47056949453262       -4.86696187471382
H           -1.79081675246177       -1.29684582890578       -3.96418487043813
O            0.75011242400213        2.07753277233664        2.62087965717303
H            0.61793680237835        1.12391565960315        2.48220566462736
H            0.18793715758893        2.32045659531161        3.36077679022497
H           -2.88546480987535       -0.81116692538705        0.91188929050146
H           -2.83618110576181       -0.61438347239783        2.43533377017427
O           -3.11385445758614       -0.18500172647343        1.62241737351735
H           -0.35866477334100        0.15874672268009       -7.78330275410689
H           -0.42770250657004        0.43690657237609       -6.26181906020053
O           -0.03217878084017       -0.14706529238876       -6.93131836517950
