37
 energy: -59.880059671093 gnorm: 0.001112492883 xtb: 6.7.1 (edcfbbe)
N            0.06304708519904       -0.32413354705639        1.47095112036025
C            0.97921422425335       -0.20881879454282        0.32114053363382
C            0.44900291043601        0.75035062240866       -0.74599421726170
C           -1.04127204804136        0.57164068302808       -1.07648748063807
C           -1.44758510593906       -0.89708061704892       -1.26377962662813
O           -1.46698491683811       -1.37388781219667       -2.41687830247278
O           -1.75134428705753       -1.53307104098066       -0.22260580709651
H            0.52162161095999       -0.87192515297248        2.25354516930457
H           -0.19668064474277        0.59472843742227        1.83207054125446
H            1.94895817673934        0.14962114503168        0.66521532590819
H            1.10838135067812       -1.20696846741641       -0.10112842903165
H            1.03195517720428        0.59811193970125       -1.65446175129911
H            0.59563708919406        1.78432420283647       -0.42767288630203
H           -1.66560182754736        0.98294556584902       -0.28128654634259
H           -1.26979635839124        1.09961789116010       -2.00351742590557
H           -0.78547682166156       -0.82561957176966        1.13807949076929
O            0.56282233759063       -3.17081722436898       -3.09399053018288
H           -0.03432173336826       -3.90483636659924       -3.30201855060539
H           -0.03679747997691       -2.41306734337940       -2.98508952956547
O           -2.39266010620377       -4.14244982573376       -0.20796613404515
H           -3.24957286446562       -4.20910576057416        0.22403157694460
H           -2.17426273649850       -3.17845117779309       -0.23349561570219
O            1.71014767250979       -3.28914012408494       -0.61936151092842
H            1.32315968648373       -3.29293899193668       -1.51895599675925
H            2.60632457044513       -3.62469282190853       -0.71539250786893
O            1.27664333609672       -1.58284103451535        3.51573087304066
H            0.81170590457266       -2.43634285863148        3.65387735528803
H            2.21152057972865       -1.79715843849995        3.45892618950661
O           -2.16524226797772       -4.06987776653005       -2.99983058820603
H           -2.27345161298807       -4.36688807740160       -2.07878463191762
H           -2.10416218172582       -3.10055532112398       -2.92829041291323
O            0.02678055747418       -4.73557799223708        1.05171518991849
H           -0.83605853527965       -4.64738652836329        0.60986821779385
H            0.64952213848087       -4.23357571279236        0.49046051031594
O            0.02303602491977       -3.96338548336953        3.64411531026865
H           -0.88154012324306       -4.09590687302013        3.94092309491899
H            0.06306521893651       -4.30273676061816        2.72224098244071
