37
 energy: -59.876209754518 gnorm: 0.000327468484 xtb: 6.7.1 (edcfbbe)
N            0.01265072425326       -0.81224471456333        1.81556288651813
C           -0.25897606272547       -0.83878959191017        0.36679876584438
C            0.31890144986729        0.38949837052306       -0.32561562054677
C            0.04878925178425        0.37413195060147       -1.82691356029542
C            0.84510139728162       -0.67000692816854       -2.64675432201285
O            1.65387750161565       -1.42234175591648       -2.05499579047078
O            0.62839848105420       -0.68990560938387       -3.87534306076114
H            1.03792590167532       -0.67669227053691        1.98248194565120
H           -0.50990259921144       -0.05632405976028        2.25716980678563
H           -1.33725002943096       -0.88950596984389        0.21018480647012
H            0.19730342772036       -1.72760528119095       -0.06570625706012
H            1.39832848688930        0.42499474127688       -0.16838496354741
H           -0.12335150274977        1.29627636855681        0.09108438405680
H           -1.00731781365498        0.18872232880540       -2.03725289990061
H            0.29783367553879        1.34005902956397       -2.27396422311952
H           -0.28926625574495       -1.72858541629754        2.23616778639350
O            2.73400551636993       -0.63821871645449        2.05156266384669
H            3.20784117816925       -0.95507993223093        2.82607306875616
H            2.89751458810666       -1.28458837104062        1.33723466602268
O            2.90401520076200       -2.51868112162786        0.05888441731779
H            3.74373103846624       -2.82635193792757       -0.29418459851209
H            2.44234977543214       -2.09519153144003       -0.69329440021903
O           -3.02138623239354       -1.85090372558072        1.75052717924525
H           -2.36402068020953       -2.47654346292065        2.09987569893724
H           -3.80361381392990       -2.36771437271397        1.54806692539782
O            1.06548303219784       -4.40303627857952        0.94876291376196
H            1.73888245000240       -3.74207483905057        0.69437308035325
H            0.77734539372148       -4.82154278800703        0.13450444157742
O           -0.74104120508185       -3.28091918226141        2.65320523728672
H           -0.53193925774809       -3.55232142975741        3.56317181532291
H           -0.13541302525051       -3.78158755105713        2.06969237467737
O           -0.07524228504717       -4.08391816071427        5.26023219138879
H            0.85098312443337       -3.93552264592768        5.48135530802573
H           -0.26464348278651       -5.00812366186550        5.45121439522822
O           -1.60038577141449       -2.48984987197341        7.10333876914040
H           -2.22914284082500       -1.91335908824741        6.65923961321754
H           -1.14562373717549       -2.98688652241243        6.40181355532220
