37
 energy: -59.869745110886 gnorm: 0.006440625901 xtb: 6.7.1 (edcfbbe)
N           -0.15585896563075        0.15121847599443        2.14546030214290
C           -0.27592233360983       -0.32066308532553        0.75568310762778
C            0.05719680391506        0.79283904806174       -0.23046839973178
C            0.02889465363211        0.28824386912505       -1.66876803900255
C            1.22355270056574       -0.62666215393896       -2.03123474276186
O            2.14651543797584       -0.76707388328135       -1.20889727407918
O            1.18503261311068       -1.16709035691656       -3.16818615823123
H            0.81577503204043        0.45794047088346        2.33497043383337
H           -0.77001402077653        0.96593840477384        2.32307309737125
H           -1.29025750904416       -0.67691861367293        0.57493383199035
H            0.41887719486761       -1.14397551456350        0.58484398818535
H            1.06603052293197        1.15849418121884       -0.03498965622908
H           -0.65343390342807        1.61314211551156       -0.12889174848684
H           -0.88458296015012       -0.26694752922367       -1.89056093893950
H            0.07374817802631        1.12138839992935       -2.37477450291370
H           -0.41389221987788       -0.60463817098995        2.81977259213283
O            0.84296728106723        1.22129234956495        7.45538607238055
H            0.82730699220287        1.58778467456899        6.55209792019473
H           -0.04429817891272        0.87986248405901        7.61087104119172
O           -1.61316332410659        2.41701948973180        2.98819599134510
H           -2.50927918912092        2.25491691963120        3.29915283346226
H           -1.60109927753552        3.29137334363833        2.58684999913049
O           -1.10965984253932       -1.01101390793698       -4.62002470074071
H           -0.89618975193130       -1.33692938805521       -5.49973381622981
H           -0.26769316797371       -1.08870501924260       -4.10409352491827
O            1.24175376082500       -3.31640284999995        4.85116468858225
H            1.72331940187514       -2.99076037011179        5.61816890970307
H            1.88962331116118       -3.65344762113538        4.22428252380662
O           -0.90169457575313       -1.83531360672709        3.88523488083195
H           -0.16514872885239       -2.34299337191996        4.26879243568163
H           -1.60794012435666       -2.46317842710392        3.71336264073961
O            2.38387597141949        1.23906055509833        2.71621212196281
H            2.71052339940174        1.91066934707247        2.11132196742556
H            3.11383714218433        0.63978248831404        2.89894336688357
O            0.62087559053766        2.13077096630061        4.80142153534055
H           -0.19168378906321        2.24377584601095        4.28192257127352
H            1.30336687495374        1.87004244067879        4.16315964909928
