! Opt B3LYP D4 def2-TZVP TightSCF TightOpt CPCM(water)

%maxcore 5000

%pal
nprocs 10
end

%geom
	MaxIter 1000
end

* xyz 0 1
  N           1.24639319742918      1.36672395901065      0.41846495078260
  C           0.23669139249569      2.03800657263425     -0.45685998587321
  C           0.20855253068358      1.43421724710031     -1.85314871538778
  C           1.58638213268353      1.22599061806134     -2.52050273095758
  C           2.50739343721273      2.41595384449826     -2.31671938777330
  O           2.47855100735004      3.37004770620475     -3.12495517839697
  O           3.23422974259903      2.40325547685139     -1.27046332269018
  H           1.15804846955862      1.66764223135400      1.38632243957866
  H           1.17779292431577      0.33296962370364      0.38744641245498
  H          -0.73618545255489      1.96532379776861      0.02178146946375
  H           0.50931958003860      3.09278375122583     -0.48612343440075
  H          -0.40331809831172      2.10060153063551     -2.46250335400748
  H          -0.29919425536533      0.47069712037304     -1.82148887790807
  H           2.06372765333862      0.33750753118365     -2.10510045805391
  H           1.42932621511657      1.05417674985907     -3.58213594471297
  H           2.18061473820939      1.63485340141970      0.06187861625689
  O          -0.94918693075855     -0.56799316062891      1.17415349863367
  H          -1.84260726505670     -0.21934525574233      1.27580167050079
  H          -1.05127908798555     -1.39974748761201      0.69191752768511
  O           2.90163901610327     -1.37491225451435      2.78119765516541
  H           3.45779282106217     -0.65917399926894      3.11344621084273
  H           2.02742311688447     -1.25540784188236      3.21280604196838
  O           5.08076198164388      0.41100893085838     -0.52823783171980
  H           5.89769032865933      0.94762509939300     -0.61574919082996
  H           4.36323870336080      1.02161363359087     -0.78116176667813
  O           7.12370324903381      2.32684454029365     -0.64317532867086
  H           7.60511724779842      2.42183919551686     -1.47083221260693
  H           6.47781492926247      3.07966976770701     -0.62798050462502
  O           0.75023712355356      3.60455945483061     -5.19260078945698
  H           0.80962780842761      2.89180023351799     -5.83909755457952
  H           1.41844375548340      3.41095877910587     -4.49367216664633
  O           0.30233612181916     -1.23646246092194      3.59850503675862
  H          -0.03693949788328     -0.71414470928615      4.33494731168053
  H          -0.17561208480637     -0.93368447145340      2.79848623150326
  O           1.88150193405718     -1.41960018747551      0.18765610548747
  H           2.58160049616014     -1.55865610873677     -0.48309953480258
  H           2.34349121824074     -1.42111223948409      1.05340876121783
  O           2.85041156535560     -0.01296316114381     -5.96549934726570
  H           2.50378730737025     -0.60837531950339     -5.29106629299543
  H           2.34941086685322      0.80302733958552     -5.84876708989414
  O          -1.06838171200253      0.79837263804651     -5.36332082776709
  H          -0.22471701253797      0.33102078400183     -5.39646547240909
  H          -0.86889267812338      1.61440796429064     -4.88654969692182
  O           3.77743111269442      3.56077911916775      2.09399532323495
  H           4.22049205799293      3.82409199061165      1.26594266654818
  H           3.68874336647989      2.60334532526230      2.03849661890783
  O           5.02211673795949      4.15439757321888     -0.42731950397205
  H           4.32015919138728      3.60654440786487     -0.87475985001105
  H           5.06548850085335      4.99227222295089     -0.89287245490737
  O          -0.94896128682208      4.86137728454152     -3.26866053740726
  H          -0.51639441206740      4.39168152204842     -4.00611848063085
  H          -0.20163190048143      5.14346700144601     -2.70397061584333
  O           3.99433944217003     -1.80839600325743     -1.64564986480905
  H           4.52456488319417     -1.03402552796182     -1.34741020264625
  H           3.79307236926530     -1.64493613457853     -2.57351016693288
  O           1.44802113731358      5.64839100733781     -1.91637081350830
  H           1.99556432344526      4.89482695777959     -2.21975201845721
  H           1.52342593984122      5.65851238859968     -0.95330304151376
*
