34
 energy: -56.706503757984 gnorm: 0.000200230116 xtb: 6.7.1 (edcfbbe)
C           -0.87168156031247       -0.32859011758806        0.69384064841978
C           -1.43796365157198        0.20092720761948        2.02491473060154
O           -2.18622958070550       -0.57218644546375        2.67578055652298
O           -1.10777371712183        1.34442536199796        2.39186954868841
C           -0.47655278759563        0.80551063693281       -0.23619382004733
N            0.16848746114262        0.28273153870317       -1.45848576641034
H           -0.00211718230001       -0.93166600479329        0.96520285491636
H           -1.61603203173258       -0.98259497180059        0.24272978982212
H           -1.36238808530217        1.37704924358153       -0.51642370060758
H            0.19908837970702        1.47507077827418        0.29790169152247
H           -0.49297024766481       -0.36988341873178       -1.97957807732362
H            1.00770497526898       -0.25155305550853       -1.22207536248532
H            0.41696915998912        1.05166043621718       -2.08401526218473
O           -3.23718164543413        0.33022331039093        5.11917165922622
H           -2.86570241838284       -0.06026543304312        4.30452818245405
H           -3.11442044339558        1.28707610794384        4.99808164914515
O           -3.38855445228454       -2.71867962874972        1.58216546877975
H           -2.92477164325814       -1.96102916952940        2.00528750268894
H           -4.24139066218622       -2.77957396165428        2.02179063432404
O           -1.81804543683877       -4.98980139754872        0.90411562521259
H           -1.10058845372554       -5.16204723376559        1.51974647871799
H           -2.36428752127389       -4.29201743374842        1.30462541365391
O           -2.38356724916033        2.89480676807328        4.24014205617818
H           -1.69062825084046        3.40176969946696        4.67545572389378
H           -1.92918590172573        2.36615403795864        3.54802579309522
O           -2.64263536816474       -3.12434592546072       -1.12456623832663
H           -2.23636260946548       -3.96378653003572       -0.87018571226356
H           -3.08132071812245       -2.82081321957463       -0.31439439439477
O           -2.89101055439632        2.86025986277924       -1.17195027090033
H           -3.82248749167004        2.63677851603130       -1.08922617917761
H           -2.79056603328788        3.76549554265175       -0.86389424374899
O           -1.39610294875663       -1.40340689146239       -2.83056697745599
H           -1.81212266901549       -2.06886084257154       -2.24819539255760
H           -2.09279866038534       -1.07026336759577       -3.40279960999610
