37
 energy: -59.866126989275 gnorm: 0.000618302478 xtb: 6.7.1 (edcfbbe)
N           -0.28139279990083       -0.49286514764287        2.27031197961083
C           -0.78859001295303       -0.36914344410499        0.89006215677738
C            0.20153493302901        0.38654037980233        0.01038685203584
C           -0.32111937732561        0.54313341317522       -1.41411528295106
C           -0.21484557167875       -0.73662457673996       -2.26890520802463
O            0.61904394893656       -1.60935665271573       -1.94370785816892
O           -0.95330668810895       -0.81092537567281       -3.27941129996241
H            0.58725058915735       -1.08812343584634        2.27976173526366
H           -0.06466601383599        0.42809073834289        2.65385570961350
H           -1.74616546737909        0.15326187149235        0.89704465633406
H           -0.94480101037445       -1.36638925124264        0.47939433389681
H            1.14341494489852       -0.16149451956120       -0.04465458354121
H            0.38758203038774        1.37916376157616        0.42333141771670
H           -1.36063575312142        0.87374019241504       -1.43621172973518
H            0.26853167609703        1.28973108010980       -1.95370191259270
H           -0.99875356833800       -0.95363760594172        2.87158838157439
O            0.20743316284853       -3.71960105339408        7.63554976320784
H            0.63865613202814       -3.10385800451324        8.23598043532173
H            0.81435924617118       -3.86723809687473        6.90276248600265
O           -2.26645454639081       -1.68864536603006        3.77046760163650
H           -2.32725192576318       -2.64792381981953        3.75247423945949
H           -2.47151783049062       -1.40105191356691        4.66528018047789
O            4.02118321956298       -0.42388921198684        6.38037807613766
H            4.53411021873467       -1.11813324397147        5.95488031050443
H            3.95921840311746        0.30504833647894        5.75485456717102
O            0.65594033788273       -3.46127300696958        0.03552322135992
H            0.80960351052061       -4.32077778509068       -0.36513256547777
H            0.66510006650560       -2.81476234952154       -0.69583604187913
O           -3.16257663686348        0.76880005747866       -3.42111518130936
H           -2.36389346600262        0.19719651175303       -3.41161837775819
H           -3.70997276521771        0.43473421560987       -4.13858574932859
O            1.84859009388284       -2.18016921426465        2.12612121425181
H            1.44668948749950       -2.75620816506416        1.44662042110930
H            2.69914808845888       -1.90249656521372        1.77636535208794
O            1.99684173801798        1.60246467414522       -6.84828388381594
H            1.10234773416607        1.90408495420394       -6.66057622160760
H            2.06356187212243        0.70174961933923       -6.51710219519779
