! Opt B3LYP D4 def2-TZVP TightSCF TightOpt CPCM(water)

%maxcore 5000

%pal
nprocs 15
end

%geom
	MaxIter 1000
end

* xyz 0 1
  O           2.32336150830987     -1.53758891451142     -4.32125493936491
  H           2.16002866313546     -0.66457312670774     -3.92446085714153
  H           1.94435618194264     -2.17324306139949     -3.68840513685747
  O          -1.28662936664404     -2.94199571582989     -4.14406274248115
  H          -2.12951850125419     -3.29049238493528     -3.82510723636539
  H          -1.22558335241533     -3.20738552613310     -5.06816813732545
  O          -5.21809892395852     -0.47399477982137     -0.26828802915133
  H          -5.13582232305282     -0.50121537305566     -1.23627849382343
  H          -5.31207851313985      0.45773402662720     -0.06000964622591
  O           0.50487382122845     -1.75715273006191     -0.20010935732716
  H           0.15115820985323     -0.83973874027624     -0.24484644630895
  H          -0.03721441442305     -2.22240734935441      0.44951411508720
  O           0.28683845296878      3.23536349974231     -3.56103157423341
  H          -0.07581762193797      3.35749200947531     -2.66086206290543
  H           0.78356502148862      4.03788550262194     -3.77518488756067
  O           1.80900690888350      0.95914535766508     -3.13528897515741
  H           2.13227285049410      1.07997788626991     -2.21790223370094
  H           1.31103458567971      1.77596522628044     -3.35385255413655
  O           1.65453231011438      3.93341608616662      0.25452703036717
  H           2.26469325559769      3.18615515208482      0.13588140447130
  H           0.79444846461718      3.62106773510051     -0.08762531833137
  O          -3.13308853498800     -1.63145698035535      1.14104245957058
  H          -2.65535922560868     -2.22543402962704      0.55917353800534
  H          -3.82869193089172     -1.23183263869110      0.59068351154263
  O           1.02298782664995     -3.27827517648554     -2.50731465933980
  H           0.22846755643307     -3.29078687556526     -3.07084130702521
  H           0.77848042700185     -2.74192606807009     -1.72869972988944
  H           2.89041213424019      0.46029666482969     -0.11103472849314
  O           2.50455935556042      1.29621173998630     -0.45275489729501
  H           1.54245385339070      1.21444973848053     -0.26569865760852
  H          -3.56279184545994      1.41043291149692     -4.80470601977946
  O          -4.32445388078153      1.87014006436143     -4.42907726671334
  H          -3.96954116053177      2.72512975645394     -4.15221366309208
  H          -0.82918376488022      0.51945500945841      1.53800854799592
  O          -1.32397890742840      0.19090561848891      2.30555730669881
  H          -1.97533641876497     -0.43081076705514      1.92386330999258
  H          -3.59420800546414      4.31550464274323     -1.62949448452212
  O          -2.71573279654315      4.67044756152601     -1.87370894367022
  H          -2.06243767917071      4.05622123616192     -1.51723687969279
  H           3.39749428232767     -1.37190252029409      1.30298111493015
  O           3.20413426615161     -1.27128292982683      0.36388728943784
  H           2.27681427750544     -1.57019492031187      0.25133790551501
  H          -1.67997456777118     -0.93752800954303     -1.55466283707753
  C          -1.99739451228400     -0.18616991546005     -2.27076816998046
  H          -0.98658277084684     -1.11974071318191     -3.82518383378236
  H          -2.93879277246291     -0.50872948814584     -2.71277808807114
  N          -0.98692227530796     -0.18714716393724     -3.37958346080983
  H          -2.95436252368445      1.09722611381533     -0.88609232867861
  C          -2.15658939028014      1.17582044188716     -1.62901931899876
  O          -0.19491965845818      0.87982598832317     -0.28360006874857
  C          -0.93417308598306      1.70144198851911     -0.89125131821554
  H          -0.02646865479720      0.03553392699816     -3.06802531002682
  O          -0.73089641656625      2.94502843888243     -0.90483498417878
  H          -1.22887430405793      0.49904799995743     -4.09696101050438
  H          -2.48481142993552      1.91646175781677     -2.35533427217024
*
