37
 energy: -59.885419271620 gnorm: 0.000104396420 xtb: 6.7.1 (edcfbbe)
N            0.26355163843508       -1.01113599413442        1.89385154107986
C            1.28569503936012       -0.29997063794098        1.11188658246115
C            0.69826822293197        0.65569683792503        0.07803379632718
C           -0.10426118658554       -0.04229369243326       -1.02847275829599
C            0.72650207670934       -1.12603823682684       -1.74739461220855
O            1.49901936452825       -0.77576642537708       -2.65615319381404
O            0.57629009737768       -2.31960290198532       -1.35891280091608
H            0.72802770914524       -1.79065313435532        2.42459989378852
H           -0.22906882307090       -0.40530990438699        2.55301538236827
H            1.91959464747738        0.25928621511735        1.80116819324986
H            1.90133396997516       -1.03854555656293        0.59705158904430
H            1.52380884020614        1.19228376582152       -0.39363821231441
H            0.05166282388123        1.38739170403476        0.56548814693468
H           -1.01043875545121       -0.49965162654683       -0.63374085472213
H           -0.38503559964152        0.69469742303159       -1.78365721055923
H           -0.45082493627442       -1.46924008032228        1.28125342825379
O            2.26954711760662       -3.67478370458067        0.28653306961834
H            1.68879306112275       -3.22016076526861       -0.35441217488531
H            2.61273303748686       -4.44803665157549       -0.16747191610895
O            1.34932656715949       -1.37424730054175        4.98616500084080
H            1.63727536850492       -2.12961739234882        4.44901125305358
H            1.81115981244851       -0.60135933197507        4.61503108702838
O            2.72295861623471        0.82601410077726        3.89441184719727
H            3.67470851233159        0.69476007100460        3.93349137261806
H            2.53947261092156        1.68950162852097        4.27691535109135
O           -1.47962765793852       -2.56391191955461        0.43811433933531
H           -0.80692412211446       -2.71886265166539       -0.25314958819141
H           -1.40742383772968       -3.27994083227349        1.09301948237429
O           -1.25435053769024       -1.39548165891917        4.27901709253490
H           -1.83836971065641       -1.20199112004208        5.01434261580239
H           -0.33653326705107       -1.38595645150041        4.64016339782849
O            1.46508126285477       -3.24999993156110        2.90612673721395
H            0.61079786881580       -3.71926428773888        2.94061198366358
H            1.86604792061362       -3.48025751739406        2.05131786389524
O           -1.22713523257618       -3.81242773990562        2.95255609410714
H           -1.33840007377380       -2.94383943866946        3.39841419041702
H           -1.80496744561842       -4.42879985987975        3.40725398989885
