! Opt B3LYP D4 def2-TZVP TightSCF TightOpt CPCM(water)

%maxcore 3000

%pal
nprocs 30
end

* xyz 0 1
C         -0.27110        0.20890       -1.45240
C         -1.19550        0.92490       -0.50250
O         -2.50210        1.02980       -0.80950
O         -0.78430        1.41210        0.53970
C          1.18590        0.17230       -0.96400
N          2.03980       -0.53230       -1.91980
H         -0.31290        0.72430       -2.43600
H         -0.63890       -0.83200       -1.58000
H          1.23520       -0.34490        0.02030
H          1.56140        1.21230       -0.83630
H          1.71330       -1.51930       -2.03430
H          2.02200       -0.04510       -2.84520
H          3.02180       -0.54040       -1.56070
*
