13
Coordinates from ORCA-job 00_Alanine_zwitterion E -323.722772163363
  C      -0.271100      0.208900     -1.452400
  C      -1.195500      0.924900     -0.502500
  O      -2.502100      1.029800     -0.809500
  O      -0.784300      1.412100      0.539700
  C       1.185900      0.172300     -0.964000
  N       2.039800     -0.532300     -1.919800
  H      -0.312900      0.724300     -2.436000
  H      -0.638900     -0.832000     -1.580000
  H       1.235200     -0.344900      0.020300
  H       1.561400      1.212300     -0.836300
  H       1.713300     -1.519300     -2.034300
  H       2.022000     -0.045100     -2.845200
  H       3.021800     -0.540400     -1.560700
13
Coordinates from ORCA-job 00_Alanine_zwitterion E -323.734685401282
  C      -0.277326      0.214465     -1.445719
  C      -1.210169      0.932165     -0.490800
  O      -2.456931      1.000434     -0.846614
  O      -0.771613      1.418825      0.560520
  C       1.167847      0.181574     -0.953954
  N       2.040244     -0.533346     -1.919851
  H      -0.321802      0.717593     -2.417457
  H      -0.641707     -0.809172     -1.583207
  H       1.228892     -0.326774      0.007134
  H       1.548055      1.194857     -0.833167
  H       1.734228     -1.499899     -2.041946
  H       2.030521     -0.072289     -2.831102
  H       3.004359     -0.547831     -1.584536
13
Coordinates from ORCA-job 00_Alanine_zwitterion E -323.737511384213
  C      -0.282006      0.220848     -1.444415
  C      -1.233637      0.946681     -0.486091
  O      -2.426215      0.979778     -0.861177
  O      -0.769465      1.414571      0.579562
  C       1.153175      0.190991     -0.946228
  N       2.040930     -0.534234     -1.916899
  H      -0.328561      0.716070     -2.415180
  H      -0.648338     -0.796329     -1.589639
  H       1.231168     -0.319778      0.005621
  H       1.551774      1.192062     -0.836376
  H       1.743955     -1.500609     -2.043720
  H       2.035017     -0.087418     -2.832641
  H       3.006803     -0.552032     -1.593516
13
Coordinates from ORCA-job 00_Alanine_zwitterion E -323.736432631595
  C      -0.284744      0.202723     -1.433282
  C      -1.251403      0.915259     -0.465553
  O      -2.428471      1.015547     -0.878198
  O      -0.756987      1.467632      0.548768
  C       1.148985      0.179042     -0.937350
  N       2.043996     -0.527099     -1.919897
  H      -0.337624      0.706598     -2.401456
  H      -0.647399     -0.815735     -1.590827
  H       1.240177     -0.348281      0.007148
  H       1.547782      1.181787     -0.817565
  H       1.755923     -1.496612     -2.059395
  H       2.031119     -0.070011     -2.832826
  H       3.013247     -0.540250     -1.600268
13
Coordinates from ORCA-job 00_Alanine_zwitterion E -323.737825027894
  C      -0.279999      0.215341     -1.442271
  C      -1.248570      0.946487     -0.483728
  O      -2.449040      0.999098     -0.859486
  O      -0.766645      1.424301      0.573927
  C       1.151645      0.187849     -0.943155
  N       2.044510     -0.532042     -1.917175
  H      -0.328337      0.710262     -2.417210
  H      -0.648657     -0.804800     -1.588068
  H       1.240637     -0.334470      0.007181
  H       1.559530      1.190592     -0.832006
  H       1.750762     -1.502658     -2.047890
  H       2.034382     -0.082772     -2.835720
  H       3.014382     -0.546590     -1.595101
13
Coordinates from ORCA-job 00_Alanine_zwitterion E -323.737859258030
  C      -0.279802      0.213973     -1.442519
  C      -1.246447      0.948155     -0.486080
  O      -2.441972      1.000558     -0.860380
  O      -0.764801      1.422348      0.572187
  C       1.149712      0.187706     -0.941897
  N       2.043316     -0.530634     -1.917057
  H      -0.328285      0.706270     -2.417797
  H      -0.649779     -0.805137     -1.585381
  H       1.239683     -0.335423      0.006034
  H       1.557269      1.188620     -0.829680
  H       1.751444     -1.500516     -2.048277
  H       2.032192     -0.081604     -2.834395
  H       3.012071     -0.543716     -1.595457
13
Coordinates from ORCA-job 00_Alanine_zwitterion E -323.737864885029
  C      -0.279815      0.212276     -1.441977
  C      -1.246771      0.948943     -0.486746
  O      -2.442713      1.005165     -0.861547
  O      -0.763820      1.423391      0.570768
  C       1.149109      0.186546     -0.941047
  N       2.043709     -0.529663     -1.917525
  H      -0.328580      0.702957     -2.418238
  H      -0.650952     -0.806845     -1.582858
  H       1.240465     -0.338653      0.005867
  H       1.556810      1.187453     -0.827258
  H       1.753351     -1.500094     -2.049443
  H       2.031080     -0.079795     -2.834629
  H       3.012726     -0.541080     -1.596068
13
Coordinates from ORCA-job 00_Alanine_zwitterion E -323.737867158808
  C      -0.280061      0.210094     -1.441192
  C      -1.246479      0.950563     -0.487910
  O      -2.442027      1.011616     -0.864090
  O      -0.763054      1.423639      0.569819
  C       1.148280      0.184966     -0.939961
  N       2.044163     -0.528338     -1.918287
  H      -0.329080      0.698001     -2.418876
  H      -0.652830     -0.808917     -1.578766
  H       1.241221     -0.342696      0.005511
  H       1.555673      1.185791     -0.824007
  H       1.756264     -1.499451     -2.050733
  H       2.029166     -0.077626     -2.834960
  H       3.013364     -0.537043     -1.597249
13
Coordinates from ORCA-job 00_Alanine_zwitterion E -323.737867939421
  C      -0.280306      0.208932     -1.440606
  C      -1.246167      0.951674     -0.488543
  O      -2.440964      1.016182     -0.866594
  O      -0.763304      1.422642      0.570353
  C       1.147932      0.184085     -0.939401
  N       2.044427     -0.527614     -1.918829
  H      -0.329399      0.694919     -2.419219
  H      -0.653916     -0.810054     -1.575982
  H       1.241695     -0.344796      0.005307
  H       1.554905      1.184946     -0.822384
  H       1.758271     -1.499256     -2.051059
  H       2.027611     -0.076759     -2.835379
  H       3.013814     -0.534304     -1.598362
13
Coordinates from ORCA-job 00_Alanine_zwitterion E -323.737868628445
  C      -0.280556      0.207962     -1.439910
  C      -1.245922      0.952718     -0.489056
  O      -2.439394      1.021974     -0.870224
  O      -0.764430      1.419805      0.572241
  C       1.147800      0.183422     -0.938970
  N       2.044633     -0.526990     -1.919395
  H      -0.329690      0.691849     -2.419508
  H      -0.654725     -0.811116     -1.572965
  H       1.242336     -0.346314      0.005155
  H       1.554238      1.184418     -0.821371
  H       1.760478     -1.499331     -2.050632
  H       2.025478     -0.076583     -2.836085
  H       3.014353     -0.531214     -1.599979
13
Coordinates from ORCA-job 00_Alanine_zwitterion E -323.737869037396
  C      -0.280632      0.207776     -1.439670
  C      -1.245818      0.952898     -0.489103
  O      -2.438338      1.025669     -0.872577
  O      -0.765498      1.416341      0.574340
  C       1.147926      0.183509     -0.939026
  N       2.044619     -0.526853     -1.919538
  H      -0.329850      0.690760     -2.419669
  H      -0.654683     -0.811486     -1.571747
  H       1.242652     -0.346036      0.005154
  H       1.554047      1.184679     -0.821785
  H       1.761442     -1.499627     -2.049521
  H       2.024135     -0.077329     -2.836610
  H       3.014599     -0.529700     -1.600947
13
Coordinates from ORCA-job 00_Alanine_zwitterion E -323.737869662236
  C      -0.280813      0.207311     -1.439129
  C      -1.245665      0.952977     -0.489073
  O      -2.434882      1.038734     -0.880160
  O      -0.769208      1.402862      0.581913
  C       1.148362      0.184370     -0.939487
  N       2.044520     -0.526576     -1.919767
  H      -0.330617      0.687655     -2.420278
  H      -0.654132     -0.812664     -1.568326
  H       1.243782     -0.343824      0.005284
  H       1.553639      1.186131     -0.824142
  H       1.764288     -1.500791     -2.045210
  H       2.019931     -0.080515     -2.838411
  H       3.015395     -0.525068     -1.603914
13
Coordinates from ORCA-job 00_Alanine_zwitterion E -323.737869841711
  C      -0.280786      0.207356     -1.439110
  C      -1.245826      0.952430     -0.488776
  O      -2.432775      1.047145     -0.884556
  O      -0.771773      1.392328      0.587426
  C       1.148720      0.185663     -0.940143
  N       2.044374     -0.526698     -1.919631
  H      -0.331362      0.686556     -2.420724
  H      -0.653219     -0.813181     -1.567054
  H       1.244567     -0.340758      0.005534
  H       1.553753      1.187816     -0.826887
  H       1.765375     -1.501679     -2.041856
  H       2.017790     -0.083374     -2.839538
  H       3.015764     -0.523005     -1.605384
13
Coordinates from ORCA-job 00_Alanine_zwitterion E -323.737870290768
  C      -0.280552      0.208020     -1.439640
  C      -1.246188      0.951467     -0.488344
  O      -2.433463      1.045412     -0.883127
  O      -0.771604      1.391201      0.587708
  C       1.148878      0.186689     -0.940670
  N       2.044237     -0.527202     -1.919192
  H      -0.331624      0.688335     -2.420701
  H      -0.652340     -0.812626     -1.568809
  H       1.244471     -0.338477      0.005745
  H       1.554395      1.188798     -0.828508
  H       1.763777     -1.501780     -2.041484
  H       2.019148     -0.084178     -2.839310
  H       3.015464     -0.525057     -1.604369
13
Coordinates from ORCA-job 00_Alanine_zwitterion E -323.737870461403
  C      -0.280415      0.208268     -1.439935
  C      -1.246354      0.950814     -0.488096
  O      -2.433702      1.045161     -0.882603
  O      -0.771653      1.389753      0.588226
  C       1.148960      0.187466     -0.941078
  N       2.044205     -0.527477     -1.918973
  H      -0.332139      0.688993     -2.420759
  H      -0.651794     -0.812497     -1.569478
  H       1.244585     -0.336724      0.005876
  H       1.554771      1.189557     -0.829707
  H       1.762590     -1.501724     -2.041462
  H       2.020289     -0.084496     -2.839170
  H       3.015256     -0.526493     -1.603541
13
Coordinates from ORCA-job 00_Alanine_zwitterion E -323.737870519672
  C      -0.280378      0.208244     -1.439964
  C      -1.246440      0.950539     -0.488000
  O      -2.433391      1.046529     -0.883222
  O      -0.772136      1.387615      0.589288
  C       1.149025      0.187982     -0.941340
  N       2.044223     -0.527559     -1.918943
  H      -0.332665      0.688718     -2.420868
  H      -0.651506     -0.812671     -1.569160
  H       1.244903     -0.335554      0.005949
  H       1.554920      1.190125     -0.830612
  H       1.762088     -1.501674     -2.041368
  H       2.020762     -0.084694     -2.839217
  H       3.015195     -0.526999     -1.603243
13
Coordinates from ORCA-job 00_Alanine_zwitterion E -323.737870557620
  C      -0.280428      0.208070     -1.439890
  C      -1.246365      0.950502     -0.487979
  O      -2.433019      1.047813     -0.883903
  O      -0.772488      1.386269      0.590013
  C       1.149042      0.188192     -0.941493
  N       2.044277     -0.527523     -1.919008
  H      -0.333097      0.688106     -2.420976
  H      -0.651467     -0.812959     -1.568511
  H       1.245158     -0.335018      0.005946
  H       1.554854      1.190409     -0.831102
  H       1.761854     -1.501529     -2.041563
  H       2.021133     -0.084519     -2.839211
  H       3.015146     -0.527213     -1.603024
13
Coordinates from ORCA-job 00_Alanine_zwitterion E -323.737870568735
  C      -0.280497      0.207919     -1.439786
  C      -1.246311      0.950613     -0.487998
  O      -2.432863      1.048217     -0.884188
  O      -0.772587      1.386186      0.590133
  C       1.149028      0.188147     -0.941505
  N       2.044321     -0.527451     -1.919084
  H      -0.333244      0.687646     -2.421009
  H      -0.651557     -0.813147     -1.568034
  H       1.245282     -0.335078      0.005909
  H       1.554737      1.190410     -0.831166
  H       1.761777     -1.501378     -2.041935
  H       2.021396     -0.084159     -2.839147
  H       3.015116     -0.527326     -1.602891
