37
 energy: -59.879721447754 gnorm: 0.000313342467 xtb: 6.7.1 (edcfbbe)
N           -0.95413369995430       -1.03548149948156        0.53884191763854
C           -0.61175294791880        0.37341532497772        0.79938688577566
C           -0.21391624553158        1.08939983550632       -0.48660775605127
C            1.17095982526582        0.69592887134141       -1.02509990923512
C            1.18203855696854       -0.61956139666795       -1.80990375977227
O            1.34658762451013       -0.56992845082624       -3.05387688454615
O            1.02517366673593       -1.69158823565073       -1.18085540084875
H           -1.15009953935183       -1.55381082541491        1.41591054499134
H           -1.77439672070421       -1.08002386626333       -0.10035668555618
H           -1.47908134985979        0.87376506388834        1.22955267846896
H            0.21014834950409        0.41487352696997        1.51476420861910
H           -0.19857041017760        2.16092241609942       -0.28597547797019
H           -0.96900832287760        0.90428733157907       -1.25235669894714
H            1.87616312223662        0.59301741713497       -0.19735401708937
H            1.53611925833213        1.47552544903810       -1.69467972398038
H           -0.15824768815783       -1.47802519705133        0.02962372887596
O           -2.38121852893396       -2.62364086820939       -3.49734812041528
H           -1.46220436903752       -2.59556646019322       -3.81979821067162
H           -2.60192389820456       -3.55703189962238       -3.41509973484237
O            1.93251450853006        1.82276840537700       -4.30893014828346
H            1.77277261271331        0.94646332042687       -3.90619688190039
H            1.21825711460931        1.95451612380499       -4.94101800179672
O           -2.96674813493373       -0.97868550747599       -1.36063033490071
H           -2.73965458434544       -1.50988162692103       -2.14590986641862
H           -3.91466786870738       -1.07466599795579       -1.23015869768926
O           -1.41693751985877       -2.44469805024421        2.90041384449417
H           -2.26292648911025       -2.88823720863370        3.01548745773194
H           -0.72753962871315       -3.05831818597917        3.17028443631741
O            0.25515589225184       -2.63619207554002       -4.40158795816956
H            0.69200886911185       -1.90221601396686       -3.91034890139701
H            0.49894011344085       -2.51663568206568       -5.32484878263747
O            1.30682062061212       -4.27018025191170       -2.26683506256757
H            1.29337553175623       -3.43427645588621       -1.76464302358171
H            0.98101853524103       -4.01572700858012       -3.14255460507791
O           -0.14663441513987        4.39807945001308        0.36704634117556
H            0.36876487860983        4.74872148200491        1.10016379866913
H           -0.29493271897362        5.12336774639836       -0.24692819847327
