34
 energy: -56.701497429825 gnorm: 0.000603550398 xtb: 6.7.1 (edcfbbe)
C           -0.10467855872508       -0.10464606152786        0.58086983357936
C           -0.47695679577415        0.63240839948660        1.88432342929997
O           -0.89851950254855       -0.07885171616091        2.82777652491534
O           -0.37377074956876        1.87713989165042        1.91637874176943
C            0.41647656813152        0.83566641069487       -0.49141847480942
N            0.41675203957239        0.16205943636062       -1.80633441638998
H            0.61004991063938       -0.88448641874657        0.84467432888649
H           -1.02773166769781       -0.58118267405981        0.24706806332787
H           -0.24314725769440        1.70320323913998       -0.53430034134567
H            1.41638054615860        1.18147749523435       -0.22795624630604
H           -0.60391061745063       -0.10901458879570       -2.03360052061121
H            0.98519102666583       -0.68625006150784       -1.77582134397926
H            0.76400876916838        0.78944644380634       -2.53336840910218
O           -2.37452852720931       -0.63742099119478       -4.97008753272377
H           -2.15435834135943       -1.56335054722769       -5.17558177359756
H           -2.05154143639516       -0.10841016972096       -5.70498401567634
O           -2.96388258765618        2.67446071280049        1.43481605599018
H           -3.38738655536179        2.06161342987483        2.06014112728314
H           -2.01468100519329        2.61606912427291        1.65090571255147
O           -2.13592508173029       -0.35691043369804       -2.23219788447348
H           -2.34296179068456       -0.41341054881205       -3.18449010591812
H           -2.52375893064300        0.47717802907630       -1.91053995182122
O           -1.69420724450629       -3.32644213138339       -5.34371987829589
H           -2.40175484600512       -3.93467754668644       -5.11061695113790
H           -0.89226386633403       -3.65610058159144       -4.92437846564771
O           -2.12785186880602       -5.23049901698909       -0.12255284142292
H           -1.64054407511007       -5.08138392927894        0.69298528327584
H           -2.87934029961146       -4.62931696123072       -0.11327470659794
O           -2.82944616522349        2.13560629333239       -1.26971421246757
H           -3.38550383110637        2.79392760477126       -1.69572429270534
H           -2.91630262710553        2.29147545599385       -0.31061887912434
O           -3.42339728308972        0.74548960462998        3.46167517250092
H           -3.46537470930395        0.95011284066359        4.40110922774314
H           -2.52376163848293        0.38907396681596        3.30789474305809
