22
 energy: -34.400704407391 gnorm: 0.000407752508 xtb: 6.7.1 (edcfbbe)
N            1.49691163666518       -0.53534147864136        0.83069906529925
C            2.87430789430376       -0.13393277646613        0.46663821597704
C            2.90646304947059        0.42590322416363       -0.95058402453513
C            4.31348337472806        0.83367821859346       -1.36590579316319
C            4.40326313896434        1.22895937811600       -2.86807102577338
O            3.49895857956300        0.83324482744206       -3.63199408756757
O            5.39966914428321        1.90892369386633       -3.20006199916999
H            0.85479723952452        0.28881512424578        0.76202043358631
H            1.15905695132531       -1.24663579775804        0.17587341794590
H            3.53818628190479       -0.99649826179136        0.53098962128043
H            3.22289808309315        0.62809241319258        1.16303978559073
H            2.25947883951178        1.30005601867413       -1.03228871505911
H            2.55820679277548       -0.31007470942460       -1.67800555825466
H            5.01568541111825        0.00493881851175       -1.24063387325828
H            4.68973253344479        1.68033238902065       -0.78978307967102
H            1.45897953861847       -0.90424970810549        1.78505220960751
O           -0.25438504998191        1.57889463191170        0.63747372988412
H           -0.25302531295411        2.40050753467655        1.13564743956794
H           -0.97001029533946        1.62121722766005       -0.00205532910791
O            5.47556817720371        6.87286832697332       -4.59038597061749
H            6.21837314510604        6.40140305280424       -4.20039036594131
H            4.91590834506201        6.20963258877673       -5.00583788743076
