37
 energy: -59.881504039853 gnorm: 0.000128502834 xtb: 6.7.1 (edcfbbe)
N           -0.87904069989504        0.66308350043628        2.47753805841823
C           -0.50000231665683       -0.20546060148392        1.34627730211069
C            0.27524258625615        0.60633556675768        0.31427456651908
C            0.45032640030779       -0.13865779473768       -1.00896036843905
C            0.45874001449460        0.82267894401987       -2.21707853706158
O           -0.45531381614314        1.69375044631276       -2.25241774476532
O            1.32698160964050        0.67310946389465       -3.09314808581554
H           -0.03465184988209        1.01042150657606        2.98326585131696
H           -1.40405997733235        1.48434781430873        2.10593875257946
H           -1.40518479679961       -0.59291197323231        0.87607460010202
H            0.10098149694182       -1.04122393762749        1.70324054458764
H            1.25238096419261        0.89940372202746        0.69538206488785
H           -0.28354069230900        1.51717995328815        0.10332629087440
H           -0.39717989611840       -0.80782902603043       -1.18298988416747
H            1.36612114451249       -0.72872794873009       -1.04675459005896
H           -1.47552939263442        0.16647906964943        3.14059171400836
O           -0.38106678842071        3.77688086373869        3.86355348641641
H            0.01406687453008        4.05397928769008        3.00345523758725
H           -0.45003491773525        4.57434556444372        4.39216402664708
O           -0.82122764635668        3.94800978643472       -0.52907093978275
H           -0.63853670841493        3.31110053588657       -1.23652799512324
H           -1.48818838273364        3.52060705684482        0.04783303870227
O           -2.52670987390911        2.45311115034888        1.11369622290842
H           -3.37231220829628        2.78956659819218        1.42203779662608
H           -2.71061454557827        1.86520026370637        0.34997142423159
O            0.90443397702438        4.39093776643781        1.58938577924031
H            1.56572372604343        3.67581717567083        1.52888653611397
H            0.36394186981281        4.32621432099373        0.78068412532135
O            1.17178223897825        1.62404220501280        4.08232278946187
H            1.33725629700889        1.32093124701684        4.97848648401030
H            0.65737394802855        2.46312453255318        4.14390463135651
O           -2.80528343148862        0.96386656473219       -1.13288579888906
H           -1.94867405245601        1.20646184457810       -1.55276314422682
H           -3.48008657042847        1.13225024050061       -1.79546324652059
O            2.70077200276229        2.26733426323997        1.87909968101240
H            3.62609158866863        2.44846945419822        2.05833851691773
H            2.29684882437859        1.99243257229685        2.72747481289334
