37
 energy: -59.867493161735 gnorm: 0.000336186081 xtb: 6.7.1 (edcfbbe)
N            0.37276696057241       -0.64501904583377        1.73129289049647
C            0.06093555868128        0.59411666133801        0.98617738194462
C           -0.84640238502812        0.29633662800531       -0.20308450155729
C           -0.13258100496143       -0.39153767084772       -1.37421063116209
C            0.02982040799866       -1.92489077946421       -1.29092767640161
O           -0.12946001495474       -2.57426469490401       -2.33859516444263
O            0.34033897020096       -2.43660510429140       -0.17963076284973
H            1.23381280552280       -0.55971801877506        2.27044758672638
H           -0.39768706059322       -0.90068366744250        2.35011969173569
H           -0.42716305483979        1.30230938035311        1.65636024742906
H            0.98798974172037        1.03568164724076        0.62028580868498
H           -1.23731214710648        1.24268079437314       -0.57664281493201
H           -1.69467623027298       -0.31490199778931        0.10988206443040
H            0.87363772521436        0.01897134639520       -1.49264690512795
H           -0.66953207790523       -0.20508127376928       -2.30625390756439
H            0.46693986257410       -1.43767922654410        1.00654913592989
O            1.77263809459607        3.88592976759978        2.67795508625204
H            1.75814656424892        4.84746499798538        2.65239110953759
H            0.81919769689983        3.61098661088821        2.65649986326042
O           -0.83178636737887        3.25678867042492        2.73527209845799
H           -0.92282192986749        3.11261260852218        3.69791927980760
H           -1.20131651764038        4.13803334836026        2.55300598748949
O           -1.45113290336644        5.70510377811931        1.51599665046615
H           -1.03604272966423        5.26636080180455        0.74890712389885
H           -2.30839451084753        6.01643494370671        1.21535242320857
O            2.30295965069540        2.88472396021626        0.17693301618865
H            3.14206004051842        3.19224910151839       -0.17229899933624
H            2.25065026883638        3.19938431198826        1.10519453675490
O           -0.33174294398971        3.78884330903667       -0.15616992927428
H            0.60465262488780        3.54293257763256       -0.25500849959009
H           -0.62099543787409        3.29750459168880        0.62464381003148
O            2.08048356730550        2.84622729994508        5.21769462441365
H            2.67275459020744        3.39985864733323        5.73238563189980
H            2.11694467380519        3.17633178098240        4.29607430286618
O           -0.66050261580191        2.78826014767229        5.43068284373807
H           -0.94230779609726        1.99525155619517        5.89422613030117
H            0.31909092363596        2.78724421032330        5.45386446634647
