34
 energy: -56.705183850868 gnorm: 0.001606533823 xtb: 6.7.1 (edcfbbe)
H            2.32461222782411        0.91794551044810        0.30675718945583
C            1.84866586294965        0.01940623580104       -0.08938149995496
H            1.48320490963773        1.17988338598007       -1.79587295407112
H            2.62270826809092       -0.69125666453011       -0.37820288132598
N            1.03961263724227        0.38880301052032       -1.26581776830817
H            1.53690301784361       -0.90283324697755        1.85289781149102
C            0.95609143985660       -0.59798518537056        0.98349538366123
O           -0.69046444436076        1.11581047223598        0.62603755728470
C           -0.15087084030535        0.36338274381005        1.48359870331314
H            0.14276077299064        0.74144731350684       -0.86715395616962
O           -0.45877309359763        0.32494097790430        2.68523379490976
H            0.86404951035006       -0.42312015370477       -1.88397330420151
H            0.44923913394505       -1.48168034766722        0.58876880560495
O           -0.04084913932164        3.56664797477334       -0.52133219975958
H           -0.29448143880567        2.78722730122923        0.00203582563740
H           -0.86338938093814        3.98837586130233       -0.78524788158565
O           -0.79048667798290        2.78094485085912       -5.46647209271756
H           -1.43523638771927        2.16164253620992       -5.10962604771799
H           -1.19422174838379        3.65343693746364       -5.45064739932072
O            2.08192970737358        2.55233354928146       -5.06108984946229
H            1.14296940700643        2.60121598774003       -5.29618215923804
H            2.11406117529562        2.70122136169985       -4.10073413401694
O            4.14328085421827        2.72157041895014       -0.41766211844165
H            4.30900864810383        3.46572302111952        0.16869440479329
H            4.99479275987473        2.43538324011643       -0.76476375550023
O            0.65799566302926       -1.80956564631360       -2.96337210261101
H           -0.22205894833134       -2.01506016646196       -3.29069416054106
H            1.25903078535960       -1.84020500618292       -3.71473215900271
O           -5.19318155088587        2.88072954622139        2.41436964371679
H           -4.86700944924130        2.01520081175127        2.67908672474950
H           -4.41939072256866        3.42712411384549        2.23917674284056
O            1.99855407261835        2.73662535968089       -2.19520755465870
H            2.79939130968554        2.81336729607655       -1.64729639204066
H            1.29859465915346        3.19240859861538       -1.68975421659123
