37
 energy: -59.861390854997 gnorm: 0.041790737582 xtb: 6.7.1 (edcfbbe)
N            0.45946716811846        0.82993444410965        1.32696184221089
C            0.98273900211559        1.71472720738254        0.26828265061541
C            0.17044713448893        1.55697243410177       -1.01441235352312
C            0.51470987877993        0.29179706207329       -1.80013808561127
C           -0.23294647516116       -0.98307645710563       -1.38360277009625
O           -0.49712802600829       -1.80447332138269       -2.28780721625448
O           -0.51920673879480       -1.14738730059329       -0.17732496734352
H            1.18424340359553        0.55009167583469        1.98551164343403
H           -0.30134903687851        1.26544563911385        1.84065872415820
H            0.95186230338019        2.74959497433044        0.60114949992809
H            2.01696823309783        1.44766043658521        0.05793618550904
H            0.36785511920022        2.41155464975610       -1.65697796507254
H           -0.89499043134844        1.55489979811560       -0.78605611811063
H            1.58081537481653        0.07829464173951       -1.69995481256883
H            0.30537648387133        0.42193930517332       -2.86052127020986
H            0.08140010088357       -0.01896780700399        0.85043885054066
O           -2.62362544596263       -3.45059006403811       -2.92192707688874
H           -2.35876899562640       -4.31891394669132       -2.60051446404230
H           -1.88055952247806       -2.86174149101256       -2.71134849074962
O           -4.23323759046300        1.74017144741776       -4.72501785522360
H           -3.91333290330430        0.88079813546834       -4.41910062097980
H           -4.42563264029848        1.64832189185061       -5.65716484322495
O           -2.80989721715981        3.98922623169527       -3.84680230589355
H           -3.44056040225580        4.51915759875021       -3.35608196530405
H           -3.29426951935327        3.19262447574822       -4.14455141279138
O           -1.03535887283312        5.10259185451643       -5.72220821430772
H           -1.67304911492402        4.77491161199056       -5.06251203832114
H           -0.33177816864407        4.44132011100705       -5.74747699181915
O            4.90472082169199       -2.16551095407195       -0.65479258060186
H            5.07288271578804       -2.49427402323559       -1.55082939894735
H            4.53085046515313       -2.90501050010591       -0.14596205277463
O           -1.27072324270709        2.51590069144098        2.74368369939209
H           -2.08127301342151        2.97593125330822        2.49385371092943
H           -0.95715480574116        2.94052298835001        3.52238889968170
O            3.88166404580735        0.49106606645720       -0.60636093724149
H            4.23693845828915       -0.40926692334290       -0.56159415943776
H            4.59988845462780        1.04981316246970       -0.92181073961481
