34
 energy: -56.706539508223 gnorm: 0.000196440810 xtb: 6.7.1 (edcfbbe)
C            0.12154822000483       -0.69606246397896        0.78721033379631
C           -0.50284203724992       -0.09738439033118        2.06289279434561
O           -0.94149749546586       -0.93514542382287        2.90865818069114
O           -0.56058871008221        1.13259709342508        2.19999556126517
C            0.13516379401561        0.28826257974912       -0.37615218166348
N           -0.23825458697571       -0.38292200221061       -1.63561434263913
H            1.12433697306218       -1.03081694792227        1.05733561905862
H           -0.46210969301880       -1.58105452371179        0.53892964001057
H           -0.57436245330694        1.08810018327275       -0.14857432416575
H            1.12278788386559        0.73494860951026       -0.48242617334768
H           -1.13034968019510       -0.91067087074743       -1.50691410103223
H            0.52110710001747       -1.06052864227695       -1.93528065944934
H           -0.35744423925176        0.30068314179500       -2.38328666135866
O           -2.63146325655607       -1.72204630911763       -1.15993353362583
H           -3.47170421823910       -1.29410912282687       -1.34598440293085
H           -2.68340571175894       -2.03492026607133       -0.24075928441264
O            0.95566899106792       -1.88197041353097       -5.30501564712041
H            1.57243826389348       -1.81899587674572       -6.03907974940521
H            0.21191566414846       -2.41888784250763       -5.59608047269855
O            1.45462853789717       -4.68671798495847       -1.96135301610126
H            0.57216558477215       -5.06607228844686       -1.89585223085173
H            1.94069305901900       -4.95862118710711       -1.17786059833335
O           -2.72177141023030       -2.49425806554445        1.52642769578851
H           -2.76076765517652       -3.36079163341939        1.94220983525000
H           -2.14888312217265       -1.94339749070810        2.09574394105833
O            0.67300979718990       -2.93086075389184        3.72532492979399
H            0.58337628605254       -2.97189802446099        4.68257741003055
H            0.07106581755646       -2.21305702128634        3.43051597149947
O            1.70326794607396       -1.96878034368523       -2.60294924344724
H            1.68142147714283       -2.91433376541533       -2.37640575084662
H            1.54011666801282       -1.92169810263093       -3.56128431831519
O            2.93975459916735       -2.11565503068182        2.30447756234283
H            2.18978234444762       -2.51520211881508        2.78104928653473
H            3.50326426226622       -1.71866470090802        2.97450893028564
