49
 energy: -431.722293909886 gnorm: 0.000318509095 xtb: 6.7.1 (edcfbbe)
N       -0.0411081124     -0.6695829712      1.4437058225                 
C       -1.1259547515     -0.1312840428      0.5757527566                 
C       -0.5911999606      0.8409024400     -0.4611081919                 
C       -1.6951138906      1.3455501631     -1.3971008872                 
C       -2.3761478515      0.2180077610     -2.1641529908                 
O       -3.5974303891      0.0132498868     -1.9787212227                 
O       -1.6411779879     -0.4626269798     -2.9543446157                 
H        0.7107108745     -1.1060013308      0.8724283475                 
H        0.3769894739      0.0688634516      2.0341728053                 
H       -1.8587268842      0.3448179853      1.2259094055                 
H       -1.6005668460     -0.9932094459      0.1072973741                 
H        0.1969711630      0.3618590069     -1.0458960634                 
H       -0.1334140466      1.6957339062      0.0435479842                 
H       -2.4404386137      1.9038566545     -0.8297104883                 
H       -1.2497546046      2.0232354144     -2.1294320530                 
H       -0.4203121358     -1.4236019380      2.0425016921                 
O       -5.5775043982      1.1070762598     -3.3437878409                 
H       -4.8874568262      0.8834087899     -2.7038001224                 
H       -5.7551057075      2.0617869865     -3.1673195148                 
O       -3.9074099531     -2.2236287007     -0.2347308194                 
H       -3.8741547855     -1.4460284182     -0.8386493251                 
H       -4.7002836614     -2.7190780690     -0.5049100325                 
O        0.6808746036      0.6160507359     -4.0144460701                 
H        0.4498923956      1.5047779722     -4.3096461509                 
H       -0.1439586179      0.2637873222     -3.6127172442                 
O       -0.1056052128     -2.6037601242     -2.0581240956                 
H        0.4190297601     -2.8803597931     -2.8191686800                 
H       -0.6110892177     -1.8120053474     -2.3395164149                 
O       -4.9491908994      0.6181729027      0.3390059241                 
H       -4.2890895446      0.8050395636      1.0172031331                 
H       -4.4376032082      0.4775668538     -0.4868135099                 
O        1.0412821542      1.4189721107      3.1046005922                 
H        0.4895677585      1.5558152276      3.8869646546                 
H        1.0095194730      2.2588058191      2.6270116354                 
O        1.8578828538     -2.0254079316     -0.1696058237                 
H        1.2077267544     -2.2716332010     -0.8634502734                 
H        2.1329994432     -2.8624475465      0.2278178276                 
O       -2.5091601276     -2.8538271952     -4.0700507726                 
H       -1.8932940140     -3.4537344688     -3.6301022124                 
H       -2.2328450103     -1.9541581537     -3.7701857301                 
O       -0.8951407733     -3.1323325920      2.5706714549                 
H       -1.7093246864     -3.1369259249      3.0893241458                 
H       -1.1554862395     -3.4503411073      1.6722126565                 
O       -4.8700220616     -2.2956477377     -2.7062677897                 
H       -4.1486208237     -2.6988982869     -3.2295745531                 
H       -4.5315940398     -1.3874212736     -2.5552179384                 
H       -3.1744857247      1.5745120012     -5.2106338006                 
O       -2.6522124193      0.7602584534     -5.0147566593                 
H       -2.4349166999      0.8512761337     -4.0765455731                 
           
                
