37
Coordinates from ORCA-job 04_Aminobutyric-acid_zwitterion E -898.188453425017
  N          -0.50969272042820      0.18029604198106      0.03070928489962
  C          -0.64878525150518      1.07752936456542     -1.16585326441119
  C          -0.00759535477635      0.49327131365358     -2.41610930063292
  C           1.47906306362808      0.15474778677692     -2.30010106352107
  C           2.39558949182952      1.30774132347419     -1.89948177856136
  O           2.17729266750935      2.45170066619868     -2.37306312035455
  O           3.35131083779937      1.05108749552998     -1.10756297736490
  H          -1.22182061784628      0.39980743896016      0.72529266037962
  H          -0.59489530704635     -0.82850220704229     -0.21480840769756
  H          -1.71340361953872      1.22702502611725     -1.33052911098473
  H          -0.20630396818150      2.03528637329330     -0.89690717195438
  H          -0.16930490293344      1.21564578600081     -3.21569526922884
  H          -0.54617646582936     -0.41385585813129     -2.70214298928461
  H           1.63397175646435     -0.67142378535073     -1.60753260368742
  H           1.83058403007423     -0.19897918404375     -3.27452375296306
  H           0.41139443571280      0.29316635446244      0.49573914823381
  O           2.08961072865576      0.30887198494462      1.19798003792411
  H           2.66304654475816      0.63815142872215      0.46656137873421
  H           2.27003676713387      0.85795694414493      1.97066533095060
  O           2.29029579841176     -2.45313235490271      0.57527482833973
  H           3.00109134664229     -2.28744923245640     -0.08170076848272
  H           2.20538635721390     -1.58962335606105      1.02114199587430
  O           3.80233964199638      4.44274896651261     -1.37251959243620
  H           4.41625825076231      4.02837357083066     -0.75550793007893
  H           3.25401361934657      3.70073143895721     -1.71565328562222
  O          -0.24747927002249     -2.59106652705578     -0.47106173996572
  H           0.69301683548002     -2.62629602641273     -0.16895232642034
  H          -0.23418752828126     -2.83659553948195     -1.40441637883418
  O          -1.99107374008877      3.76322655033543     -3.18515493001421
  H          -1.08392219730794      3.67497336398614     -3.54870773413077
  H          -1.87000142970698      3.85865740342700     -2.23335969346044
  O           4.31248999092931     -1.53126868984152     -1.12149927064627
  H           3.99053512142123     -0.59894522701918     -1.16188974123038
  H           4.31105707459661     -1.84278154736554     -2.03486177965596
  O           0.57988812234269      3.54033737503092     -4.25642857185933
  H           0.58976683042880      3.00427547030165     -5.05858524673413
  H           1.15174929748574      3.06198214760007     -3.60820019127534
