37
 energy: -59.876209803108 gnorm: 0.000648527926 xtb: 6.7.1 (edcfbbe)
N           -1.01528434865493       -0.83354498418643        1.88676504393095
C           -0.39756324167886        0.48066414112090        2.13955591510922
C            0.11816414298552        1.08872753424836        0.83799224815243
C            1.40666045396291        0.44433939468476        0.30313429201633
C            1.19329971707418       -0.86698185864635       -0.47108151905197
O            1.46961377491569       -0.88580763954028       -1.68618449852475
O            0.75644390910282       -1.86152446379817        0.16495129659457
H           -1.26703369718520       -1.31792038063368        2.74730297165968
H           -1.86605365576337       -0.70961747738686        1.27983477462015
H           -1.14461952205123        1.14741412712547        2.57123401002625
H            0.42876614290435        0.36656201472376        2.84287218126222
H            0.32936284308358        2.14346226691044        1.01533736057912
H           -0.66224548478151        1.03066129069781        0.07744649446788
H            2.09179576660751        0.23396424685083        1.12802749859088
H            1.90031295221821        1.12938156428962       -0.38820132237455
H           -0.33271029180336       -1.40909368005748        1.33232434933039
O           -2.66168673156336       -2.31965232910792       -1.65223841415488
H           -1.99907954869007       -2.02398331585772       -2.30351874041728
H           -2.17281260777029       -2.94167120900116       -1.06658546968773
O           -3.41995453651031       -5.88703624902917       -4.36897125042714
H           -3.50898600666290       -5.56053938804547       -5.26915112865408
H           -3.85198232695215       -5.21751333066496       -3.80459378907121
O           -0.57762829368107       -1.64155459066858       -3.33490411224598
H            0.19620273422440       -1.37428985003967       -2.80162699991694
H           -0.24106188473837       -2.21298892722911       -4.03184171291657
O           -4.57786051714313        2.01269142740417       -4.23082185357423
H           -4.86966727260069        1.09562193658666       -4.19809327537584
H           -3.66348387280595        2.02595270906407       -3.92973398991089
O           -3.08989210000238       -0.38001306135506        0.19198344644819
H           -2.97405714236159       -1.03480948738363       -0.53047300879569
H           -4.01797973526676       -0.41378208470750        0.44207271376277
O           -1.08212801386692       -3.86763610227976       -0.09381530442922
H           -0.32017922423246       -3.25824891840780       -0.06791737794071
H           -0.75496314303783       -4.70888931093169       -0.42275134296079
O           -4.60905882560437       -3.89617330440843       -2.80088923379456
H           -3.93385656638519       -3.28269668724475       -2.44312966664684
H           -5.15426384536073       -4.15494802304074       -2.05163658552878
