34
 energy: -56.707127989808 gnorm: 0.000255304619 xtb: 6.7.1 (edcfbbe)
C            0.15146926492924       -0.84819323306017        0.95751393292555
C           -0.33559680491514       -0.62278644637265        2.40072400504108
O           -0.70241228509974       -1.66500561834605        3.02392661373345
O           -0.32933798626026        0.52165394505026        2.87536556408788
C           -0.21490323995053        0.28378734860061        0.01698620223817
N            0.32634921545131       -0.02137147653280       -1.32643365875140
H            1.23652559420615       -0.96093276098990        1.02562344887051
H           -0.27307595544336       -1.78479693005303        0.60415895170642
H           -1.30103648451290        0.36456646912920       -0.04850305386514
H            0.18409275615359        1.22246399562501        0.40142205004645
H           -0.10577127118137       -0.93199239781726       -1.65485124645136
H            1.34002006951520       -0.15007979683877       -1.27119575336746
H            0.09866224317880        0.71920222774327       -1.99209081420480
O           -3.06183470009692       -1.19567497523679       -0.61299661555750
H           -3.03355806805841       -1.74442554173617        0.18288967558238
H           -2.42746768525838       -1.61248162971155       -1.22661440442679
O            3.11201283518727       -2.30809497457077        1.22197819486522
H            2.41338995035606       -2.90707978650628        1.55658269953880
H            3.84746537319443       -2.39284568340217        1.83340867328125
O           -1.02087255657462       -3.43583434084039       -4.55148829866473
H           -0.85717949352774       -2.90148423955083       -5.33467769761999
H           -1.79899608411272       -3.97331043770169       -4.72689983106934
O            0.95384848247924       -3.75849815938132        2.16667491792470
H            0.44887721034870       -4.02718577364892        1.37493640416316
H            0.40336582042921       -3.07551905505783        2.59447585561275
O           -0.79886203026975       -4.25992948974467       -0.00329262414048
H           -1.50869861353067       -3.86412169065576        0.54368257007432
H           -1.05949468218509       -5.16941858924245       -0.17575134713233
O           -2.57757949974997       -2.98923873814767        1.63733561514273
H           -1.92560781921196       -2.49951140968731        2.18909365264970
H           -3.18938183346672       -3.40206114383895        2.25342852458725
O           -0.89909931302106       -2.33376358803993       -2.01249265871744
H           -0.71535376240149       -3.05641920921321       -1.38540484323881
H           -0.86815764668402       -2.72034787020981       -2.90568470480092
