37
 energy: -59.872843014302 gnorm: 0.000907672544 xtb: 6.7.1 (edcfbbe)
N            0.04854257091871       -0.25542702671592        2.11722278155894
C           -0.34187157782973       -0.41574448614496        0.70334472894001
C           -0.27655686618056        0.91887536159340       -0.03053423409214
C           -0.78831500176235        0.77583548784893       -1.45979153411180
C            0.16222737698452       -0.04160304875004       -2.35728665151035
O            1.39246234164542        0.08297525824790       -2.17772453930174
O           -0.35583979275319       -0.77058520096255       -3.23801902754944
H            0.97441140764184        0.17220861912004        2.17244562794720
H           -0.63346018818099        0.36643081460510        2.60742415586936
H           -1.35547652995995       -0.81526005548405        0.65051386011030
H            0.32893498198369       -1.12170073166601        0.21302465008731
H            0.75669939600339        1.26938545203449       -0.08525179625384
H           -0.88117240694254        1.66087760595295        0.49229303198552
H           -1.77142515271991        0.30661677465135       -1.48491887947432
H           -0.86718909084518        1.75737792838463       -1.93513817998353
H            0.07222947819084       -1.18740778525934        2.59970166567782
O           -2.79948381253860       -1.82581229264556       -2.86008456950879
H           -1.92161343323531       -1.41676583658107       -3.03749919009227
H           -2.84101022560275       -2.60457657168418       -3.42337993953178
O           -1.70086578083606        1.38758126292512        3.48824252609387
H           -1.46775660851518        1.53478177337316        4.41066368111236
H           -2.63548171534083        1.16293088022705        3.46023055084519
O            3.55124094312226       -1.50349929577238       -2.82616536905677
H            4.11545209165953       -0.90922887477658       -3.33044282407612
H            2.74664290297706       -0.98411037663824       -2.62208005088533
O            0.26360722435127       -2.73669111208532        3.27029799103081
H            0.42420611119507       -3.27643334431679        2.47585980238324
H            1.03932366145135       -2.84514024234660        3.83027067467179
O           -2.07366114802096       -3.36904160705531        4.77036759513855
H           -1.26748309592431       -3.16210033934492        4.26509333132835
H           -2.76178410427620       -3.51816256561547        4.11562633793123
O           -3.33341282346737       -1.65788814110357       -0.11617330513748
H           -3.14484951421754       -1.76770732818713       -1.06384699668589
H           -4.28514246543905       -1.53435196723398       -0.04772411890577
O            0.94800563361638       -4.06267253543819        0.94011521583750
H            1.83075047745377       -4.15310796753530        0.56974243834359
H            0.34120673538024       -4.52317248558709        0.35472455924581
