40
 energy: -64.976794958191 gnorm: 0.000381448493 xtb: 6.7.1 (edcfbbe)
N            0.86890897790559        0.14013393491613       -0.13775085782922
C            2.31542029440637       -0.01901664240253        0.07894474237678
C            3.06988621775253        0.75190835361864       -1.00059270379299
C            4.54333788740444        0.95316143249511       -0.66882689352121
C            5.23604902312892        1.91662235392780       -1.64234870756803
O            4.57219532419865        2.85448185621795       -2.13688641175791
O            6.45746986344314        1.72790681660764       -1.87357677676481
H            0.62934202611984        1.15188346086660       -0.07461570376920
H            0.61251367829526       -0.19370651456125       -1.08205281127681
H            2.58543186434028       -1.07410838577526        0.04660394850107
H            2.57533686421680        0.37229226746893        1.06265298747157
H            2.62182430319697        1.73750943198590       -1.11772315978806
H            2.99111217539145        0.23643929837869       -1.95885632031862
H            5.09958440365271        0.01524271401196       -0.66717355119374
H            4.65377615730390        1.40549474640438        0.32113551896207
H            0.29033199642685       -0.36101699111713        0.57500925718765
O            0.36085232105343        2.87981791411120        0.13528160783097
H            0.74956868224054        3.27153090856332        0.92290282362326
H            0.80858068071819        3.30260096879017       -0.61804567121761
O            2.03188057260042        3.99776728641771       -1.78655513399402
H            2.93627871190718        3.65704395812931       -1.90249961903690
H            1.90908758045434        4.65912208563375       -2.47236085324394
H           -1.59869948568394       -1.49383492734636        1.45717856802900
O           -0.98082492163528       -0.78148314898100        1.64172429680643
H           -1.47369525098319        0.05482132305000        1.53481763005170
O            7.88496297905267        3.02144641858076       -3.82936690316059
H            8.64014162398722        3.39474345788982       -3.36308790475458
H            7.36667795944490        2.53750244300797       -3.15139943941946
H            0.08036641207146       -1.62028211292873       -3.04514765636207
O            0.23969541172095       -0.71833553834632       -2.75452322469647
H           -0.09857289991195       -0.12679077431538       -3.43174486058901
H            6.33493550316716        4.04028757670306       -4.44449772356780
O            5.43016728323124        4.36991859508063       -4.32643774612285
H            5.09832548585257        3.86648180253720       -3.55765282369266
H           -1.34254170300049        2.18347369247504        0.58208256700168
O           -2.09229664207837        1.62314634047425        0.83956682828114
H           -2.76858770084406        1.74790198842892        0.16845315685563
H            8.59680677444705       -0.47818217118245       -0.95074249451624
O            7.69427343818664       -0.40632484732890       -0.62513572489558
H            7.30606114517799        0.36871807721572       -1.07780819952516
