40
 energy: -64.974204546015 gnorm: 0.000368227089 xtb: 6.7.1 (edcfbbe)
N            0.66330521565709        0.02166462555542       -0.26943494572827
C            2.06956058669834       -0.33989339618445       -0.50404428394812
C            2.68756689454616        0.65002101331300       -1.48796069526102
C            4.20733329835773        0.54557734087020       -1.55124325783184
C            4.83771868593214        1.69714214995581       -2.35147238778884
O            4.45081251860976        2.86712932335812       -2.11495533952351
O            5.72154830279119        1.39881859235811       -3.18454102565246
H            0.62571138083203        0.98344110563323        0.13071394917796
H            0.14253200383437        0.01843271516750       -1.16322255432630
H            2.13385998452183       -1.35275832473108       -0.90093800600662
H            2.61034729940614       -0.30521235230440        0.44203768401492
H            2.44048378213322        1.66565814914328       -1.18177267454448
H            2.27869747010052        0.49404104199698       -2.48741403727645
H            4.53939174677136       -0.38913157462924       -2.00523947995490
H            4.63306420347290        0.61237676893105       -0.54625068807064
H            0.19087701610284       -0.61283558677965        0.41409302022856
O            0.71673220877928        2.55166417991199        0.90896261783611
H            1.29256684837290        2.58137820871499        1.67880429533347
H            1.12029425544922        3.14791805813123        0.25479555262700
O            2.25846195224012        4.05015071608317       -0.85800753820113
H            3.06206476402475        3.68001924907045       -1.26638397122398
H            2.20994916923324        4.96398313838902       -1.15089453554513
H           -1.51299633903771       -1.83042451996458        1.56276065187686
O           -0.79202120280468       -1.20726007304930        1.68332032644348
H           -1.19588219516350       -0.34413069444317        1.89411675086240
O            9.98833379803737        2.20195374254550       -4.65559295428995
H           10.25997247102700        2.31058974167006       -3.73923451158977
H            9.05965109455040        2.49403813761617       -4.69345468186519
H           -1.02790287276720       -0.71109026892804       -3.20843549015410
O           -0.66523798128433        0.05315192510376       -2.75271873254400
H           -1.14381002266154        0.82962204061915       -3.05567009587136
H            6.51625719431834        4.52464155720792       -3.79564221670875
O            5.84334979319063        4.98557023957099       -3.26980939177059
H            5.33342215260281        4.26492459334192       -2.84719402847647
H           -1.00653987252240        1.94742863247624        1.47465164589724
O           -1.75921716196438        1.38961623933337        1.72677850389008
H           -2.53262003156924        1.75535683354781        1.28940333361377
H            6.73598116628241        2.37944804181424       -4.14424811676420
O            7.27107873627104        2.97058728528222       -4.72598592413873
H            6.91325652953213        2.84944020982714       -5.61189757186171
