34
 energy: -56.704558402100 gnorm: 0.000627009907 xtb: 6.7.1 (edcfbbe)
H            1.93552030271858       -0.44907760320864       -0.00888290608012
C            1.16047413815357       -0.70903356322445       -0.73253074422971
H            1.63742215035477        1.05814384983432       -1.74250898884977
H            1.54111243718535       -1.48439114813512       -1.39854163195023
N            0.79607051471160        0.49576721147884       -1.50370628883873
H            0.19313734100794       -2.12125281090520        0.58753148812484
C           -0.05865562208609       -1.21871957096657        0.03448718608920
O           -0.85435892843167        0.97455906233858        0.55169268934230
C           -0.54521471529501       -0.14172746670535        1.02516559249878
H            0.15953165283004        1.04222936358076       -0.88125951259216
O           -0.57803844010725       -0.42526310520600        2.24749445966972
H            0.27826781253143        0.26562181290970       -2.37180091679398
H           -0.87707962162060       -1.43921788039706       -0.65199430266464
O            3.09954554844161        1.94145479156163       -2.05073636650149
H            3.44493404826782        2.48589869734158       -1.33808475464866
H            3.83815681516086        1.46110548331216       -2.43775004425878
O            2.68733796411849       -3.20906686321993       -2.32096554264051
H            2.28220542835533       -4.07370170278034       -2.43297504740901
H            3.53226358401526       -3.34916317126174       -1.88401536456397
O            2.43261835778300       -0.34413078479657        2.32005322051718
H            1.49391435993502       -0.22464736233561        2.51141255682254
H            2.58810344927213       -1.30313367637329        2.42335812342081
O           -0.25230508322040       -2.91998101861493        3.20483492345048
H           -0.58545040611721       -2.91456742218326        4.10747841044194
H           -0.41814592609913       -2.01408932634165        2.85531442320302
O            2.44378884931680       -3.11532700070092        2.67537416916282
H            1.48106417572492       -3.15187941262466        2.84172887896314
H            2.86340595818702       -3.56026354976522        3.41794336547116
O           -0.26363107988103       -1.28680040994859       -6.19239249386884
H            0.57006945004820       -1.76236464393528       -6.13665421406683
H           -0.38212365513045       -0.85133443984103       -5.33060248913051
O           -0.71680449281233        0.34844327378169       -3.88935784924335
H           -0.50973568799801        1.18561478201404       -4.32054640717051
H           -1.66170167932643        0.35435760524414       -3.70884662165956
