37
 energy: -59.868321705264 gnorm: 0.000250010370 xtb: 6.7.1 (edcfbbe)
N           -0.02798824304076        0.63321267368100        1.27947204682112
C           -0.39929011918977        0.29384665607537       -0.11320143110561
C            0.83083157862569        0.33102468569775       -1.01330476294260
C            0.43745946311438        0.53535110534562       -2.46916359116103
C           -0.33520294290967       -0.63485218085520       -3.10404771163638
O           -0.27965473459526       -1.76320599397145       -2.58491143176832
O           -0.98199662923167       -0.35427752445607       -4.15525394557789
H            0.72799923742361        0.02441829951328        1.60130820190488
H            0.29937592552634        1.64161943548211        1.29833012654253
H           -1.13407005716901        1.02003750850312       -0.46234639322222
H           -0.85065900813290       -0.69698358079625       -0.16648054261303
H            1.38969070775166       -0.60293083795493       -0.93499418296066
H            1.47463087589445        1.16429108794439       -0.73390922686109
H           -0.17289202596116        1.43175372258601       -2.57719916182514
H            1.32894349711807        0.66908463667929       -3.08669572462828
H           -0.83634133019496        0.53571602364845        1.89718516039665
O            0.62816502048767        3.26549521428119        1.21954184404918
H            0.73873850751866        3.73023290241277        2.05524086340758
H           -0.20098576066860        3.61540559513248        0.81821728386265
O           -2.80677053706142        1.66566178422111       -3.71074626269855
H           -2.32736464688483        2.28978822843054       -4.27721460347546
H           -2.33596778929996        0.82388004739169       -3.85761882832356
O           -3.01161877626053        2.09399563684217       -1.02665731172170
H           -2.93427490161105        1.98249324025149       -1.99547337690542
H           -3.92418499250995        1.88195854507896       -0.81157231310553
O            1.85472962940836        3.24712267620321       -3.68386556536773
H            2.00104431353668        3.24757185118085       -2.72159920401534
H            2.37736389899113        3.97610581816422       -4.03136034078991
O            2.47193021741204        3.31672305246128       -0.89250237020280
H            3.32715990020110        3.55895854672016       -0.52703221458771
H            1.82832619800100        3.38653319702535       -0.16221472375966
O           -0.43636666509833        2.26059553207146       -5.18121157769454
H            0.35116168714676        2.58400283807687       -4.71247457183762
H           -0.49705568316144        1.31058478877831       -4.97224325217637
O           -1.66284655580551        4.16764180425457        0.16629146805673
H           -2.16318589144941        3.42855113410531       -0.23108636056144
H           -1.66939036788633        4.87357684978515       -0.48498801153208
