34
 energy: -56.703850644378 gnorm: 0.000269984869 xtb: 6.7.1 (edcfbbe)
H            1.53886205065463       -0.25158716432824        0.37116712507602
C            0.44937098829377       -0.27053837390894        0.34292767415174
H            0.48936422248057        0.86554401087661       -1.42567491184448
H            0.12410997163318       -1.21163875511792       -0.10004233592914
N           -0.00074964957531        0.86412466474583       -0.48910923702956
H            0.29868417781513       -0.93131781808145        2.39461809540981
C           -0.09759237267459       -0.13940827721608        1.75790614514526
O            0.66307254396873        2.14974607248774        1.74190353034012
C            0.23394391670373        1.20475301801252        2.43741769919579
H            0.26134696732439        1.70338855807801        0.07179040305466
O            0.01063123668545        1.27696806916851        3.67261236743508
H           -1.01244116437824        0.84743001286442       -0.61693258104510
H           -1.18670472734577       -0.22771017995722        1.77928808757277
O            1.40732165221473       -2.75847255555163        3.63605454134126
H            2.19802049425611       -3.20566745995613        3.31539839034189
H            1.51514037212244       -2.64475584343649        4.58456334332061
O           -2.50202285168613        0.24937263900059        4.13937119454729
H           -1.61503887758042        0.64709867992458        4.04355048574401
H           -2.49000166003131       -0.20500231595488        4.98759059167588
O            1.58862242593394        2.22889721990621        5.75747295847551
H            1.25953172703921        3.12154815967303        5.90380722636683
H            1.06170917302171        1.87483645533344        5.01757385936835
O           -0.53509313774124       -3.21645492500887       -1.03902429311019
H           -0.89904335530442       -3.79445705709927       -0.36240084330586
H           -1.15268458941475       -3.21796477726997       -1.77825655809847
O            1.43534521682751        0.80261514777836       -2.77363956560937
H            2.13092293643002        0.21531037329089       -2.41185106266901
H            1.86685521291966        1.63139396153597       -2.99935085269385
O            3.25142837296383       -0.75794916929714       -1.48248513119018
H            2.92449479765672       -1.67949527730093       -1.44309683377919
H            4.20847797598265       -0.80750240231475       -1.54419187889495
O            2.23930805764560       -3.30413238923139       -1.53204858863458
H            1.29742435729781       -3.26132703692340       -1.29070937292283
H            2.28105553780027       -3.76955426469471       -2.37336967181156
