37
 energy: -59.875882841390 gnorm: 0.000501271882 xtb: 6.7.1 (edcfbbe)
N           -0.15757182594934       -0.47749961161875        1.77981023296053
C            1.02395468989128        0.15534328600907        1.17070093118125
C            0.62571759487473        1.19351159899354        0.12159330666824
C           -0.49028178696137        0.73268447169891       -0.82816700602577
C           -0.29967875246268       -0.70159456662770       -1.38135838705307
O            0.15250215677754       -0.83686269163412       -2.53314873990263
O           -0.64229201238867       -1.64240424729405       -0.61871466218165
H            0.12489261143995       -1.12231158857243        2.55612205939317
H           -0.82091790924553        0.23032975156338        2.14588160998760
H            1.62743675396575        0.63083022720710        1.94534248493809
H            1.61564356242657       -0.62540092325928        0.68983348740348
H            1.51039510364295        1.43583973218190       -0.46827404602571
H            0.29041505339121        2.10736019364888        0.61330880699765
H           -1.45510693341519        0.74826990446144       -0.31919302406778
H           -0.53842906435700        1.40662725422585       -1.68516595030538
H           -0.60448475154588       -1.03788035989398        1.01868167826018
O            1.49244243711799        3.44081144524335        4.75248109924587
H            1.35076485303622        4.29754685124570        4.34029227640867
H            0.60048432016026        3.08355009102745        4.94596522882720
O           -2.10431076892033        1.27185318243847        2.83832084545469
H           -2.52589353654614        1.95417169971895        2.30905877889924
H           -2.80913499704152        0.63438085333790        3.06796044312796
O            0.66613989892247       -2.18919640319402        3.75663428866195
H            0.95592128802799       -3.04597082731236        3.43410850162841
H            1.45665275771718       -1.76127089272941        4.15145038602343
O           -4.07669053267700       -0.58003001508020        3.34847960671438
H           -3.95504825580981       -1.22739432933604        4.05026074380873
H           -4.49032300296736       -1.03550378681339        2.60943327180979
O           -1.00147208215403        2.38221695474781        5.14913690089623
H           -1.36321980673094        1.99046129833879        4.33040307735042
H           -1.09412867711393        1.71029894552305        5.83059245910789
O            2.85474222440316       -0.91738040681686        4.74283618139751
H            2.91030716835832       -0.07549389109125        4.24539577082890
H            2.90783173696027       -0.68076975237280        5.67320519922368
O            2.94117732042949        1.51458890203826        3.47306794769647
H            2.43190448954132        2.19344286943529        3.96492610545435
H            3.79648067517046        1.90722978057002        3.28173910521880
