34
 energy: -56.700788788558 gnorm: 0.000601324470 xtb: 6.7.1 (edcfbbe)
H            1.61490556923643        0.02113195020168        0.11752246220776
C            0.70368568655114       -0.49735956761434       -0.18469954747815
H            0.81643168568415        0.52057346003546       -2.00734333576507
H            0.95416329371058       -1.52559346908323       -0.44327793554942
N            0.10713204168689        0.20913531305355       -1.34228887846858
H            0.13339368574137       -1.00107778151124        1.83432333382540
C           -0.28340885931117       -0.47406572336359        0.97956709656367
O           -0.95811774915989        1.75949090801505        0.46619938329606
C           -0.60339246700532        0.97941758918979        1.38182730456830
H           -0.38877814067934        1.04172987504026       -0.89879243947669
O           -0.48784455858025        1.30917524282215        2.58334879034009
H           -0.58999417170124       -0.37083734526389       -1.81424205058072
H           -1.22450073319737       -0.95262099892858        0.70205479460240
O            2.23995350740654        1.72486175770016        5.75029315153183
H            3.10429474566177        1.47682561203182        6.09657049812392
H            1.73470850809315        2.09588782018767        6.48113431401222
O            2.74107415062112       -1.29000843495284        2.63573345605889
H            2.95602592531882       -0.48074558394916        2.13464472732140
H            2.07471189473596       -1.00782400000750        3.29178422655172
O           -0.35127448914390       -1.88682416265901        6.33481848857926
H            0.28462912377049       -2.60438471438593        6.42008667257430
H           -0.01964863491744       -1.32654617118940        5.60868031097032
O            0.83060147374203       -0.26558086123663        4.37061429902342
H            0.26884493861473        0.27077896439447        3.77045501302992
H            1.34126720817365        0.39076558126445        4.88052168410051
O            3.16999407895644        1.11707882798413        1.29170900041460
H            2.73057011053550        1.74371831672843        1.90433079797611
H            4.07097754055367        1.43617445949450        1.18474913975101
O            4.87602529481667       -2.52781483386136        3.88017961989284
H            4.14324639037289       -2.06485211114678        3.42341518895439
H            4.70242750026127       -3.46506770084462        3.75441446136924
O            1.85835941044663        2.70437033191435        3.09051463560012
H            0.94598049186868        2.40229981451042        2.94144107225711
H            2.05870954713223        2.46289463542295        4.01059026379690
