37
 energy: -59.880578958828 gnorm: 0.000220237144 xtb: 6.7.1 (edcfbbe)
N            0.54003590016237       -1.58608694163372        1.42206000333784
C            0.14258990796813       -0.16966032334956        1.46975020758940
C           -0.98867369015934        0.12189293019481        0.48476668593842
C           -0.53391678905998        0.25036676717254       -0.97435188189875
C           -0.40357942781757       -1.06256786929355       -1.76548889302347
O           -0.53980504872377       -0.99250488621768       -3.00495860587004
O           -0.15527805148795       -2.12417145707018       -1.14507025512568
H           -0.11432185325908       -2.18934201331682        1.95845122218604
H            0.48443060452083       -1.90776106338230        0.43008367807916
H           -0.18442828574960        0.07515469259646        2.48045740692599
H            1.00346460420018        0.45344222215847        1.22315851669405
H           -1.45585407270343        1.06539940633154        0.76739688144739
H           -1.74711198334228       -0.65955558852704        0.55412312416993
H            0.44092800115065        0.74196881905005       -1.03345040012947
H           -1.23457831181987        0.86704967241239       -1.54103268901479
H            1.49890331248562       -1.74692587437636        1.80312391767924
O           -0.24747558896559       -3.20009633402097       -4.56914464299443
H           -0.34753498204155       -2.42567207689066       -3.97061919283573
H           -0.39094181978684       -2.85967959105353       -5.45744240812596
O            2.89002475978589       -2.26824280716266        2.64864388729998
H            2.52734299768843       -3.14947757475767        2.88198620583568
H            3.18410288858234       -1.86736742203263        3.47117718500475
O            1.50156207458411       -4.56852621934556        3.12354348539100
H            0.57848517725776       -4.27356536159568        3.01037308038825
H            1.62919206769035       -5.29988242850643        2.51367777683494
O           -1.05133784635473       -3.53384428205953        2.61446745074015
H           -1.40465410067306       -3.78782943550939        1.73682291164057
H           -1.80235394460291       -3.46637624736570        3.21018326335827
O            1.47158726535196       -5.38367282334674       -3.94662332436344
H            0.81232797054267       -4.70387070556470       -4.16302426180215
H            2.24312191775037       -4.90692800216281       -3.62366662110828
O            0.25644308230553       -1.80708416129759        7.90430364409983
H            0.33338275170733       -2.24809482416550        8.75544842826275
H            0.50954303445863       -2.44783769713015        7.23102383637672
O           -1.84658681674527       -3.93621927004951        0.05446259538186
H           -1.27029943097859       -3.33439841513365       -0.45058569109317
H           -1.86087527387534       -4.76169681343081       -0.43777452707017
