37
 energy: -59.870071621187 gnorm: 0.000279598530 xtb: 6.7.1 (edcfbbe)
N            0.30422381744486       -0.44814232493778        1.18300054951987
C            0.85927518266900        0.52406860679559        0.21950722633386
C           -0.22756152546021        1.13615337907360       -0.65854245096132
C           -1.20434216496831        0.11466533354963       -1.26621891854880
C           -0.52010178358004       -1.17950609541437       -1.73116758535209
O           -0.12191433397283       -1.26889127868984       -2.90783278411478
O           -0.40633714777425       -2.09872307525205       -0.87290349230699
H            1.02046342005055       -0.74822677277031        1.84432672772369
H           -0.52694718119846       -0.08151099386305        1.69915814947024
H            1.37699495249510        1.32436925221764        0.74652764566182
H            1.58391185032539        0.00315354431118       -0.40783502938119
H            0.27358710612826        1.68509900081289       -1.45618311867410
H           -0.81031228675594        1.85310060502472       -0.07985116352470
H           -1.96513258093432       -0.16050612363333       -0.53452167558393
H           -1.69735224100096        0.55959730369958       -2.13119222609064
H           -0.01326418242507       -1.26867369802520        0.61795567446912
O           -2.08389900066197       -0.16323698337214        2.54526523685797
H           -1.99943009577715       -0.50331930125398        3.44244627992570
H           -2.40479554370518       -0.91031638217666        2.00567250535464
O            2.35161272997358       -2.24197746963726       -3.35012631848490
H            2.58611912903510       -1.90261647779611       -4.21984383682158
H            1.41082883341813       -1.99542307131655       -3.21572123743663
O            3.49345923952628       -1.35585385208482       -1.00454969235628
H            4.00334137002816       -2.09476439968282       -0.65806091292667
H            3.10674378645159       -1.67027117049791       -1.84359514852018
O            4.09454472254101        1.36033746374711       -0.73980793313495
H            5.05072113901117        1.45399182716270       -0.78631452989622
H            3.90677132621728        0.40951892671583       -0.83742223455646
O           -2.47269209438942       -2.35993966570271        0.92404247022267
H           -2.76385604770569       -3.26628913013032        1.05153083755051
H           -1.77997413108657       -2.38319323657961        0.23489702301565
O           -4.01030215059751        1.84365364677223        3.14275600695113
H           -3.32165835964316        1.21403739996551        2.86294941926136
H           -4.43603201936775        2.15128776109112        2.33759947681165
O            2.22534394278808        2.74849414386731       -2.30691942084034
H            2.87480048047422        2.34470601100023       -1.70237500005728
H            2.59588484238996        2.66042129702967       -3.18981751960912
