37
 energy: -59.857401957390 gnorm: 0.000292020788 xtb: 6.7.1 (edcfbbe)
N           -0.16537426291771        0.18099937471331        1.09806572768274
C            0.69684832198117        0.76113354299807        0.04550065492899
C            0.24478582299269        0.30101642738115       -1.33702468337804
C           -0.02952048990855       -1.20821882727819       -1.44988164152875
C            0.98470809387975       -2.10311540875649       -0.70903372617160
O            1.82746145104369       -2.72634561430658       -1.38272912620893
O            0.87545800448433       -2.16922948684861        0.54379333430948
H            0.05923620985806        0.56732360817118        2.01591286247210
H           -1.15063361097858        0.33939305254580        0.87909581986423
H            0.65829029246436        1.84927266810581        0.08273573864989
H            1.71949725166883        0.42897595019280        0.22593082250712
H            1.02226361748449        0.58354185591806       -2.04615756042441
H           -0.66615532820276        0.83212657972298       -1.61567881956492
H           -1.01372999092895       -1.44991307091751       -1.04263988087835
H           -0.01493247966607       -1.50101334433400       -2.50012447667333
H            0.06031755535376       -0.86193535245332        1.08177515399819
O            4.29027703549721       -3.81381502936105       -0.77972345068255
H            3.39542233729613       -3.43805984281038       -0.90099175172276
H            4.55337102587634       -4.12462547787004       -1.65184170134402
O           -2.32151996463294        2.61838715268910       -1.77985698632229
H           -3.18447814998263        2.86919844094126       -1.43543963050162
H           -2.37979565833395        2.72013013403147       -2.74825051963443
O            2.14975211579216        3.07236307019172       -2.28137801899277
H            1.37864036406846        3.35936083634260       -1.75659631520999
H            2.91494529576716        3.49716470056967       -1.88476790351682
O           -2.64697185374103        2.94279745416209       -4.51960614696034
H           -1.98117883894695        2.52594006718137       -5.10115976673315
H           -3.49965709406363        2.68666069986347       -4.88373998571992
O           -0.06473777165741        3.82731743461064       -0.72218182872080
H           -0.84585971526651        3.38564080313453       -1.11057568988248
H           -0.30143968822433        4.75369014527785       -0.61916637030843
O           -1.10638436423634        5.01583158882949       -5.95617069696053
H           -1.74449070003625        4.66869847759986       -5.31441537788130
H           -0.44861121308759        5.50422560509569       -5.45149435952592
O           -0.80375439463341        2.27740239078389       -6.45518669092872
H            0.10406927713900        1.98635842307353       -6.32962736507076
H           -0.77305350315581        3.24038797067553       -6.59928164306009
