34
 energy: -56.709573698696 gnorm: 0.000275346638 xtb: 6.7.1 (edcfbbe)
C           -0.66120524838021       -0.41294611667537        0.91372582099928
C           -0.41519135486812       -0.05478398456650        2.38888431678436
O            0.43713083316589       -0.75073776218394        3.00737499348008
O           -1.00957980121037        0.92101954862039        2.87745503613313
C            0.12947206509197        0.56189286976467        0.04008537608506
N            0.42521507280734       -0.04625899923603       -1.27494448548572
H           -0.31557455785557       -1.43318739247649        0.75469303431550
H           -1.73073328494401       -0.34396136400347        0.71805476969621
H           -0.43647688625192        1.48659941855594       -0.07292609027520
H            1.08241237910612        0.79841992101114        0.51685593124363
H           -0.41014018148766       -0.47070559336369       -1.68192504329804
H            1.18564507365470       -0.79620116113642       -1.11647038339900
H            0.80738226157883        0.65109627646495       -1.91636234181596
O            1.53626946219853       -2.86684089839268        1.66548165128557
H            2.04586491252714       -3.41423678699133        2.26793847893033
H            1.16268409960062       -2.13908139891292        2.20553715194877
O            1.90785598228973       -1.11614004545007        5.50268256633588
H            1.21527319634237       -1.10818454433853        4.82553846278217
H            1.61544810353794       -0.46437302466799        6.16540585886764
O            1.06627665792183        1.08262696023267        7.00575352585209
H            0.85230933621030        1.57516756280662        6.18346596822267
H            1.63748986171328        1.66302424308830        7.51810970612916
O            2.42995848903918       -1.63520837580331       -0.62532290542433
H            2.95644212790407       -0.92267843648848       -0.21581907260034
H            2.14242161685906       -2.19644770093840        0.11999541911410
O            0.75321377951317        2.26043327173756        4.56443003363137
H            1.56436196208028        1.92748759599802        4.13906841673057
H            0.01958637153510        1.86240520477880        4.05714234800911
O            3.46991943894746        0.59532143970084        0.65895978066059
H            3.31701344792966        0.61163082460105        1.62047346215600
H            4.28726366113096        1.07618204416468        0.50410324181772
O            2.76166388984339        0.61564205862141        3.34865729937615
H            3.18274626855109        0.17321841478990        4.09783036585911
H            1.93603796394759        0.10656593072134        3.21940130587746
