34
 energy: -56.705571433173 gnorm: 0.000233188108 xtb: 6.7.1 (edcfbbe)
H            0.90277576891088       -0.99627213830970        0.78078940812519
C           -0.03553976853972       -1.25241143687610        0.28746564667083
H            1.02008977741759       -1.95658210423199       -1.39266851182714
H           -0.39708405158272       -2.20667910851920        0.67674766020569
N            0.20905693624096       -1.35241911591892       -1.16270650027321
H           -1.25869452153190       -0.04478616927541        1.61527185173491
C           -1.05010740850909       -0.14431719480428        0.55146271495729
O            0.07049820278658        1.27367964607285       -1.03657467702173
C           -0.57939085497090        1.24545625503539        0.04041102277539
H            0.34074878447469       -0.35599299523856       -1.46877509720700
O           -0.89335666365365        2.24098052405730        0.71715017445761
H           -0.59693774157068       -1.76038376828851       -1.65603337153669
H           -1.99274539265673       -0.35925812018230        0.04379944787599
O           -0.83706929621852       -4.14970155448828        1.55582485466960
H           -0.10894991022244       -4.39057795936803        2.15630450768771
H           -1.63871160134229       -4.48761855395500        1.96320962383740
O            1.80027138586030       -3.37551561835406       -2.17570661419484
H            2.40974723962288       -4.01967709902487       -1.80817518474670
H            2.14567358916259       -3.12447017757651       -3.05935344708932
O           -0.14900236494698       -2.39242022730335       -5.38287685986723
H           -0.57022292369398       -1.54769147459401       -5.56293102419089
H           -0.53372198291869       -2.71775334032982       -4.54290310144041
O           -0.90291476741906       -3.30830435614670       -2.89031437887400
H           -1.44856594294457       -4.08884944160939       -2.76648800207828
H            0.00786286435077       -3.55886727365238       -2.64348143236382
O            1.20072047214784       -4.68690578528753        3.39125843360336
H            1.18578339606911       -4.05058660688820        4.12679464170639
H            2.12261271232093       -4.76986556321356        3.12898389617997
O            1.16776514991169       -2.79890040684876        5.48440867055081
H            0.84832187712609       -3.01748914100140        6.36539751520450
H            0.86339346441681       -1.90849808123788        5.28240774004038
O            2.49482920594185       -2.60066262682493       -4.67222968485962
H            1.59303425558884       -2.57034733419112       -5.05423270615827
H            2.89558811028622       -1.74574565162021       -4.85206121658186
