34
 energy: -56.706744547457 gnorm: 0.000108665100 xtb: 6.7.1 (edcfbbe)
H            1.36409913273364       -1.49748517111755        0.12341841886142
C            0.34488381472469       -1.10893423922099        0.09261420754179
H            0.27879142011185       -1.51920267873440       -1.96526943887826
H           -0.33071770888758       -1.86662847713580        0.49009839888552
N           -0.00827163395819       -0.77505335922384       -1.29997764575974
H            0.46310130720864       -0.09362204995677        1.99076220736432
C            0.25396030777680        0.14712635647010        0.95148784231798
O            1.31837362583226        1.47552582794793       -0.73749536916619
C            1.23116964381917        1.25020468292237        0.49148277785724
H            0.49904902526394        0.11702209744528       -1.49445615068140
O            1.86716695757704        1.87478972845069        1.37305777276618
H           -1.02694889894520       -0.60244055187834       -1.38666644785475
H           -0.75203655310548        0.56845328322461        0.88987728671854
O           -3.38220920362882        0.18269277791650        5.36744271356785
H           -3.40816432467995       -0.48956503012600        4.67844088480706
H           -2.46856673808881        0.47738525800855        5.43369986718048
O            3.25025276772608       -2.56760013962653        0.89194815990448
H            4.15161677856535       -2.23897992992818        0.93998910987340
H            2.87151488145915       -2.45390581092545        1.78153796193079
O            2.15718324033773       -2.10305641892371        3.44841173883182
H            2.18081984959142       -1.13164781731177        3.52808483846775
H            2.57217292088723       -2.44125788437282        4.24910048447471
O           -0.31656305190769       -3.20936118250307        2.52270216136292
H            0.50190907468068       -2.79841651413848        2.84388051600234
H           -0.14332489385807       -4.15499470685042        2.49534765472818
O            2.28350201379642        0.63837590951529        3.71766595751495
H            2.07146591893186        1.27010967679885        4.41083896863879
H            2.18459288453726        1.12347650462114        2.86611417352842
O           -2.77744663395678       -0.36903211588785       -1.52401882555414
H           -3.33247272111894       -1.14312054243647       -1.66300413538365
H           -3.11252092827332        0.33531294477455       -2.08605501461383
O            0.80066634863168       -2.80311829724870       -3.02932048012767
H            0.69389314230343       -3.70659965261695       -2.71601337213420
H            1.68907623388831       -2.72229647785496       -3.38753822298896
