! Opt B3LYP D4 def2-TZVP TightSCF TightOpt CPCM(water)

%maxcore 5000

%pal
nprocs 10
end

%geom
    MaxIter 500
end

* xyz 0 1
N          0.66518        0.94285        0.58456
C          1.22200        2.16728        0.01391
C          0.53505        2.62364       -1.29256
C          0.70721        1.67653       -2.49643
C         -0.18206        0.45883       -2.50181
O         -0.08630       -0.34294       -3.41677
O         -1.12434        0.26646       -1.55897
H          1.13222        0.75770        1.50156
H         -0.36045        1.05553        0.75311
H          1.10839        2.98675        0.75820
H          2.31081        2.02740       -0.16771
H          1.03964        3.57626       -1.56578
H         -0.53935        2.85733       -1.12962
H          1.77498        1.37691       -2.56885
H          0.44896        2.24256       -3.41770
H          0.86013        0.12848       -0.03884
O         -1.11619       -1.98189        0.99462
H         -0.49792       -1.70225        1.71579
H         -0.52955       -2.13840        0.21247
O         -2.15927       -2.97524       -2.22175
H         -1.17759       -2.90136       -2.32839
H         -2.51630       -2.14625       -2.62894
O          3.91972        3.38951       -2.91111
H          3.73932        3.45058       -1.93943
H          3.09297        3.72730       -3.33880
*
