34
 energy: -56.702313479552 gnorm: 0.000752424409 xtb: 6.7.1 (edcfbbe)
C            0.28498680005311       -1.40081268912142        0.15798834172310
C            1.25874676804772       -0.88664155733920        1.24008848679925
O            1.23368794095754       -1.47737932294056        2.33885555868163
O            2.00321828338482        0.08020463928199        0.95816262207782
C            0.41257402341121       -0.64910220536631       -1.15633249031811
N           -0.55361769305156       -1.14899281312580       -2.15897529040801
H            0.49130748309891       -2.46680148856069        0.04611608297245
H           -0.71152487747166       -1.29193059436007        0.58976423659806
H            0.23254155043019        0.41189074974545       -0.98304187926899
H            1.42773831792153       -0.75937095176682       -1.53574241301609
H           -1.50636066287351       -1.06127583911001       -1.79562998516068
H           -0.37231107167861       -2.13180643079906       -2.37775960862028
H           -0.48222828078339       -0.57750689645371       -3.04422076593387
O           -0.39068029447047        0.39629814865322       -4.38109534897333
H           -0.79100273166743        1.26710611450034       -4.30206360493899
H            0.45298633255072        0.50466510208773       -4.82970606270181
O            1.91440129043662        2.31197129829013        4.25118546251148
H            2.67485877461615        2.04582238266220        3.69311788637122
H            1.49360935974968        1.46243108978589        4.49137613051536
O            0.67065389303913        2.37980558593161        0.04316647081729
H            1.24579821392939        1.67298646895875        0.38124328198270
H            0.46700486336593        2.92689545378881        0.82098480597068
O            2.64208826922459        3.63182797263644        6.62081351986142
H            2.45894474793821        3.18331894012114        5.77393086351546
H            1.80145628468444        3.65804928133947        7.08759010032176
O            0.40096726412092        3.77832651144495        2.47006137075829
H            0.87775557297030        3.23968430688075        3.13431855105333
H            0.71299320350531        4.67980258129233        2.59561595074019
O            1.04771135478695       -0.25136706529758        4.76819885549666
H            1.59254498731514       -0.76313096598470        5.37470236404316
H            1.11607346067234       -0.70329861469003        3.90267725232728
O            3.81374580679371        1.34503406973194        2.53585404458307
H            3.18984909816063        0.82110686608717        1.98608347183469
H            4.31316466684931        1.89323887181550        1.92236773774886
