37
 energy: -59.871899496848 gnorm: 0.000257839891 xtb: 6.7.1 (edcfbbe)
N            0.24334005332559       -0.67829082699260        1.49107617530260
C            0.40201323273423        0.65219122656094        0.87228973196218
C           -0.13769437545952        0.67018062739168       -0.55410009104014
C            0.78948750522725        0.02083673456645       -1.58945187462185
C            0.73317623805085       -1.51014242371421       -1.70498984619404
O            0.84495313661904       -1.99781194412711       -2.85930522954534
O            0.61489623608985       -2.20544910678430       -0.67423674914928
H            0.84705031571696       -0.76819740431005        2.34589057910203
H           -0.72987305814554       -0.84375844000083        1.74581595777156
H           -0.12556054113007        1.38973700540428        1.47789837384792
H            1.46235527391287        0.90291879447344        0.86138020678773
H           -0.27992134107161        1.70861547291372       -0.85568769878931
H           -1.11228994014639        0.18023801732884       -0.59042131082221
H            1.83134113391652        0.26885368158088       -1.36903989395908
H            0.56941950047454        0.41659820551135       -2.58139673410790
H            0.50104090283660       -1.40077835863309        0.76850954388067
O            2.38234251726158        1.70799510000204       -5.41084111761435
H            1.69057486670765        1.03153682175341       -5.32164761264679
H            3.20943403080359        1.22586499689958       -5.50618614114663
O            0.79775399151594       -4.68662730616657       -3.51170026817952
H            1.70198111696070       -4.81998343250232       -3.81395422125051
H            0.75720837664574       -3.75720399963819       -3.20884527760575
O            1.72405224799648       -0.67112763912784        3.76422181777230
H            1.49059580508991        0.20382114721031        4.14339367908169
H            1.57880838285593       -1.31918101121634        4.45841792210659
O           -0.56892535705199        3.85449433873384       -1.91505016387685
H            0.22468680754876        4.31536562368751       -2.20403854283200
H           -1.20056054971631        3.91023475779186       -2.63806413059991
O            1.00501784809392        1.80029731582464        4.64911740956822
H            1.69225262838185        2.47241908287237        4.65552920658580
H            0.28313570664952        2.14834572731627        4.09416953051319
O            0.57373361696494       -0.43731969570473       -5.06773606974834
H            0.15385443043242       -0.97904274351445       -5.74274287102901
H            0.70495048373937       -1.02541915562653       -4.29236478037972
O           -1.00838954368497        2.86237648533233        3.00949448514570
H           -1.93191805856280        2.75290578894588        3.25607930172767
H           -0.90430062151110        3.77212453581641        2.71444670408550
