34
 energy: -56.706985951869 gnorm: 0.002052066800 xtb: 6.7.1 (edcfbbe)
C            0.22788265756953       -0.17650727029462        0.00357928335839
C            0.46849722564339        0.35058183235397        1.43546484322778
O            1.67157369776718        0.39434984044450        1.81965994110682
O           -0.50611924743365        0.71568781942211        2.10948716922733
C            0.25067170575866        0.98631059524976       -0.98039436088253
N            0.26569188289420        0.47653276937830       -2.36580620985586
H            1.02555791875762       -0.88014349621329       -0.23078376447070
H           -0.73745527181995       -0.68026589408988       -0.01798090014592
H           -0.62573542984459        1.61337130910613       -0.81174168854871
H            1.14734411584819        1.58420066785619       -0.81026873448163
H           -0.54198505581561       -0.16887265268774       -2.51832590129559
H            1.17010722272477       -0.05711819655303       -2.51506168112896
H            0.22197937197508        1.24218850693512       -3.03830320054274
O            3.10053402333289       -1.72084635337779        2.86183283497141
H            2.53823913536942       -0.96488616951570        2.61394264488260
H            3.95864454039510       -1.54696759509750        2.46052130754142
O            2.25069131958715       -4.41601215742225        2.95450140899080
H            2.02397322428981       -4.55886499636787        3.87713675106130
H            2.51195962478776       -3.48091254766763        2.88918822503415
O            3.58191378776533        0.36627909138078       -0.10518706935752
H            4.15202751460711        1.11704767757788        0.07716217599705
H            2.89278338028247        0.36830105725906        0.59524725286526
O            2.73230642119034       -3.48253235084872       -1.98805005999443
H            3.50966998807924       -3.84981066922937       -1.55613911557734
H            1.98578655100064       -4.03310095554617       -1.73188277752960
O           -1.90121527701228       -1.17854629100538       -2.73507667904078
H           -2.73471295950948       -0.76086697335954       -3.00732750986068
H           -1.83029900456230       -1.99939343631504       -3.23009499120621
O           -4.26270579300746        0.06984312970332       -3.59654312393644
H           -4.34026411898980        0.59764359908940       -4.39774191867538
H           -4.90856663677472        0.40121300044527       -2.96655840092012
O            2.67637222039658       -0.70819030036677       -2.52787741053992
H            2.70378106364217       -1.67523793979229       -2.44130516126911
H            3.10214320109500       -0.35406965040697       -1.72666217903058
