! Opt B3LYP D4 def2-TZVP TightSCF TightOpt CPCM(water)

%maxcore 5000

%pal
nprocs 33
end

%geom
    MaxIter 500
end

* xyz 0 1
N           -0.61155545670756        0.05959537522322        1.22980731352622
C            0.42993228499980        0.13983343210131        0.19368828361180
C            0.29743809705187        1.39459110065956       -0.66183355483896
C           -0.89200687464023        1.35124648529849       -1.62957677566403
C           -0.86823397027836        0.10599768433091       -2.50931311985021
O            0.10096176604889       -0.07687313307700       -3.28641803978120
O           -1.82262171145188       -0.70724781725571       -2.41357477744997
H           -0.48774543493312       -0.83024726126574        1.78188923249959
H           -0.55953928444096        0.88076010789110        1.85438080329629
H            1.41172783169062        0.14408393724005        0.66731723389533
H            0.37026861970606       -0.74791302632366       -0.43540792126578
H            1.21521727052955        1.51716077999424       -1.23526699990310
H            0.19071762869015        2.26625712371522       -0.01550404445581
H           -1.84052676652090        1.38058273017266       -1.09485553436793
H           -0.84197724761112        2.21679136931452       -2.29370575740224
H           -1.56481357558696        0.01395302152175        0.80545219912253
O           -1.61952815825483       -3.32333468606777       -1.44499764103988
H           -1.61448118797598       -2.39946917239592       -1.75249333127342
H           -1.87469766362380       -3.83952942182064       -2.21727202829154
O           -2.85218146429254       -3.06597017736067        0.99961073845946
H           -2.42050860697731       -3.28210268528370        0.15009485270082
H           -3.49060541327717       -3.76132284956097        1.17427649469269
O            2.40707409694715        1.44991560010722       -3.41359554199606
H            2.77442402010742        1.40954820226575       -4.30135626473360
H            1.57334120217025        0.94062075725232       -3.43752783634285
O           -0.42387158140695        2.33612825271397        2.89806928697961
H            0.22711580636398        2.32607762535707        3.60589956479693
H           -1.22953686495818        2.72632846101689        3.24904798158163
O           -0.42782874790191       -2.41896799100243        2.27976937842106
H            0.15108320580046       -2.82893809950341        1.61000780772363
H           -1.32601464058714       -2.70809784902016        2.04076167992514
O            3.58054443763506        0.00657135028793       -1.25484145239315
H            3.13964447545189       -0.82289902756729       -1.49954559845639
H            3.33137300872187        0.63055732155849       -1.95612202827285
O            0.22472284987379       -2.29632818659629       -5.00531773665414
H            0.17065926680799       -1.45592353906684       -4.51412378536042
H           -0.66389068020849       -2.67775779911129       -4.93092941439737
O           -3.08446299340526       -0.44791819945646        0.09919182957944
H           -3.16899119529234       -1.33480027839770        0.49833591537020
H           -2.82708211900968       -0.59746872181814       -0.82610029425118
O            1.87874523186180       -2.05584890895963       -2.28467282381912
H            2.09874474397390       -2.61415225987134       -3.03785525737814
H            1.27008007054024       -1.38690351597930       -2.63953060479037
O            0.77068268657733       -3.39405224760306       -0.01660867641474
H            1.36428558834383       -2.95868972321862       -0.64580779641538
H           -0.05971196486412       -3.52309756748848       -0.50930885862311
H           -2.32436681899667       -1.93442722106948       -3.66587110226362
O           -2.48060996642964       -2.73123513960759       -4.20994967811903
H           -3.31510518843696       -2.59096504979215       -4.66542943217029
*
