37
 energy: -59.883046704681 gnorm: 0.000229895772 xtb: 6.7.1 (edcfbbe)
N            0.87195668425405        0.45867545525191        1.96675648295251
C            0.15520572012769       -0.44687159799619        1.05344170906510
C            0.05642760666378        0.17576964294329       -0.33500880174562
C           -0.42776826603729       -0.81901139049212       -1.38342385581310
C           -0.29533563288736       -0.28438898543586       -2.81938133441979
O            0.64981672201097        0.47886388808695       -3.09949271507116
O           -1.14714285707773       -0.67900874337421       -3.65929687229742
H            1.82454815420035        0.66136473858747        1.60019236580983
H            0.36076928934884        1.35529383274832        2.04923419944045
H           -0.84147169127122       -0.64198131608392        1.44999798558320
H            0.69645536306617       -1.39052536534270        0.98473587604958
H            1.03850693370449        0.53181822709973       -0.64386827134138
H           -0.62338486267670        1.02834706135887       -0.32695277427295
H           -1.46670700578820       -1.11080181867666       -1.22582522011401
H            0.18209513782660       -1.72693897863031       -1.35690002284980
H            0.93110459408115        0.04664960386384        2.92413512664949
O            0.51213058686987       -0.51043490773987        4.51042180836125
H            0.41226302010555       -1.43485406930757        4.74951358496667
H           -0.38634094483166       -0.13783036442928        4.43599470059838
O           -0.51311402451009        2.89680298376238        2.38537534154156
H            0.06225740190115        3.48938020463824        2.88140613026144
H           -0.82063585206202        3.37862511347530        1.61292312281351
O            3.33606019391392        1.03144523888089        0.80908770381641
H            4.12415333999592        0.48998290932985        0.90283466402763
H            3.23039814066238        1.20434222359310       -0.14197844241497
O           -1.84716326316951        0.70055528530578        3.72577970416982
H           -1.54061065943139        1.52317817424606        3.31388855530987
H           -2.71504043230077        0.87794832263427        4.09477559638581
O           -3.36264719533121       -2.05616914121548       -2.79850074740386
H           -2.57971530863738       -1.57984462898687       -3.14364829550123
H           -3.94212575414639       -2.18554639997780       -3.55546368754291
O           -1.14935778939132        0.15396133876993       -6.28880163533764
H           -0.82352107516389       -0.63202472604672       -6.73942548506287
H           -1.13247884920769       -0.06631003707191       -5.33448878913739
O            2.96399223202887        1.40927000051514       -1.93598952008022
H            2.17740107427549        1.04291656562642       -2.38392842403209
H            3.21614926888261        2.18520066009553       -2.44448076330496
