37
 energy: -59.878261543606 gnorm: 0.000205483524 xtb: 6.7.1 (edcfbbe)
N           -0.76696854100667       -1.69212230802753        1.68874584381117
C           -0.13665874393603       -0.36676364456633        1.80970795837663
C           -0.20800224480279        0.39480168326041        0.48959987668951
C            0.75178128801815       -0.12271937176947       -0.59249950143065
C            0.23656014087270       -1.28640356651686       -1.46357947362801
O            0.36753044541802       -1.19329875589188       -2.69533858133487
O           -0.27022359168603       -2.28523437516839       -0.87991303864654
H           -0.49708855125101       -2.32419950732180        2.46024181430038
H           -1.80234119591150       -1.61322638739765        1.66657081238645
H           -0.65372119809248        0.20077789490707        2.58422962456518
H            0.90784192413266       -0.49161087615514        2.09689748149187
H            0.04997363561683        1.43528698339660        0.68655278177738
H           -1.23187151962791        0.38162569115463        0.11380976704465
H            1.68648549266833       -0.46194999493461       -0.13737242256279
H            0.99792759895736        0.67847747677595       -1.29228710864887
H           -0.49208237861727       -2.10151438639540        0.76057159399561
O           -0.09004965547916       -3.52048326549218        3.72454513643391
H           -0.42831407406546       -4.40815473475261        3.57547210366951
H            0.74991993480590       -3.60135607135051        4.18449581389949
O           -2.15572463559461        1.03555125626095        4.02406456984221
H           -1.97983076051459        1.94245206551355        4.32737160010524
H           -2.58722810142662        0.59147816194745        4.76059940125475
O           -2.84492834769064       -3.20262700535077       -0.93839920802633
H           -1.89430187465215       -2.98592420974631       -1.00714245607903
H           -3.20575394793255       -3.12024496983654       -1.82466705963472
O           -3.53637436720657       -1.81467524633383        1.31070132913155
H           -4.09238420988776       -2.38291638214511        1.85198159429785
H           -3.39416893703930       -2.29027843913323        0.46817259007257
O           -5.20774767156794        3.01405544096736        0.85596750238535
H           -4.60975419867955        2.29151118055792        1.13279808828460
H           -4.91090116888193        3.26531681068968       -0.02305679807419
O           -3.41427899095676        0.99721748411406        1.51123487511776
H           -2.98681835968696        1.04935436224091        2.38621468661283
H           -3.61113725635151        0.05494103169480        1.38281888409402
O           -1.76974456273956        3.68775037347778        4.85511842091612
H           -2.52322237863818        4.26792292514224        4.70594307332244
H           -0.98703699654850        4.15297467621857        4.54389642428642
