34
 energy: -56.714546979671 gnorm: 0.000571259228 xtb: 6.7.1 (edcfbbe)
H            0.98872796131644       -0.49406924895303       -1.31192188408167
C            0.29293618647699        0.34402135086827       -1.36454659991796
H            1.47268565686763        1.52174556579874       -2.62614593847809
H           -0.42124867769058        0.15324880513092       -2.16649159822834
N            1.03552340204558        1.57413960480706       -1.68045054554352
H           -1.26096580151275       -0.30297942384807       -0.01710721195370
C           -0.47898784123799        0.45572959744182       -0.04709707010638
O            1.15757802152553        1.16252165190252        1.56662948106266
C            0.39186163806067        0.22529815978260        1.21043285719171
H            1.82221757851412        1.71416554197662       -1.00651138391363
O            0.28623561933273       -0.86292060491555        1.80030362764734
H            0.40174197776484        2.39575105220917       -1.64003781743197
H           -0.93370440797457        1.44302979191886        0.03398601312158
O            3.28422382469974        1.58853841873146       -0.07704272989696
H            2.74975025030556        1.40484182270663        0.71479193323070
H            3.57349236412859        0.71919251264194       -0.40224312885236
O           -0.60622225706741        3.81661782631451       -1.34948109666918
H           -0.13417072971748        3.97455220878047       -0.50526466992521
H           -1.54263210189003        3.92903006584558       -1.17259333064207
O            0.90478094678769        3.78838043701740        0.89839723931966
H            0.94356221561052        2.85454245739661        1.19826457127653
H            1.82372616785279        4.05872574140378        0.80001244653739
O            2.41556836486789        1.65911267693798       -4.07736438858987
H            1.96068921588826        2.25910942465826       -4.69828614865044
H            3.24494030541865        2.08683047202203       -3.84237871806518
O            2.55227452620595       -1.10467482346330       -3.74621075252349
H            2.46884735860724       -0.16553786765560       -3.99404710984070
H            3.01535457686250       -1.53682716213925       -4.46900057580673
O            1.09924728780681        3.52949307919532       -5.61410985827026
H            1.22728308136393        4.46240603468631       -5.41723098070816
H            0.17078096318633        3.40853829318618       -5.83364033828062
O            3.53084409323902       -0.98048281845376       -1.18308493938463
H            3.20488567895306       -1.06917605397693       -2.10369565385499
H            3.72951755337648       -1.86665558989965       -0.87500069984182
