166
 energy: -278.889957541695 gnorm: 0.000296022210 xtb: 6.7.1 (edcfbbe)
N           -0.31960325539824       -0.94681026249429        1.36234241886486
C           -0.16658730068310        0.04583997419043        0.28654859265097
C           -1.29234441649034       -0.03521794453331       -0.73643092032189
C           -1.10664153276865       -1.13335016666784       -1.78254194209835
C           -1.31454641227141       -2.56052674866516       -1.34260667141777
O           -0.46977102236302       -3.41772932731210       -1.73442338516016
O           -2.31860677667986       -2.87803913934227       -0.64927053889645
H            0.27845050937342       -0.70858289178253        2.18304182808041
H           -1.30775138325262       -0.95754214761306        1.67196210172798
H           -0.18030756675209        1.03101055181071        0.74994141284260
H            0.79103414994558       -0.10521258608948       -0.20624864853040
H           -1.33808376967471        0.90438111968487       -1.27881503586844
H           -2.25069995763928       -0.16583518401512       -0.23969652223570
H           -0.12728199331148       -1.05689500344584       -2.25023311927781
H           -1.86354084137848       -0.99529193023267       -2.56107464616044
H           -0.08072909017748       -1.90590192649598        1.07417543234750
O           -3.70599685675903       -0.22573303912998       -3.37761703734378
H           -3.27754485142558        0.49323069065592       -3.87616793167523
H           -4.26468239479069        0.23827887496727       -2.71667178062796
O            1.91619982776936        1.35609674468875       -6.57557532133075
H            1.15063867066552        0.99279680181335       -6.05446487440183
H            1.94817707929540        0.85204708760347       -7.39011698501482
O            0.47248421962684        2.12715173510899        7.13952676837478
H           -0.21387181273070        2.56140824222250        6.55728458130226
H            0.32949180945091        2.48225653289025        8.01826770368447
O           -0.78310558873562        5.17275496106941       -3.20552481144014
H           -1.03395322993514        5.27841015136084       -4.12998026858805
H           -0.65722915005017        4.19243033720352       -3.11647729924357
O            1.10638843679237       -6.19628006556542       -3.80881254901862
H            1.30468835536148       -5.24424145978548       -3.92296432935297
H            1.73084140917744       -6.52243453333247       -3.15402702869518
O            2.56914668028276        4.99732388224336        4.09306775265406
H            2.89498318377828        4.61736651222942        3.25549906862391
H            2.73271260675819        4.31104205953297        4.77419676416838
O            3.78257486900207        1.39976492794916        0.95396675748806
H            4.57505727048382        1.13088023968573        0.48027961180767
H            3.10608040112480        1.56290989622057        0.25821537683857
O            2.55132010223060       -1.01637604591076        1.78006267861043
H            3.01895137430238       -0.21812338053637        1.48685194640381
H            2.36159627491709       -1.53354320231147        0.98419838180264
O            1.51314216763378        6.00874488820233       -2.21398393406754
H            0.61652223029614        5.76505476920931       -2.57149830323623
H            1.64682638269890        6.93387678686662       -2.42537469790770
O           -2.29050799412190       -3.25952808754266        3.60961721915894
H           -2.35131879414075       -3.96816005793948        2.95027840537597
H           -1.35418193126773       -3.22825879975086        3.87444968171843
O            4.58424293925754        0.44449029193427       -1.87832674987423
H            4.75518722829406        0.71976355621692       -2.78584710772291
H            3.76463466283005        0.93838969271275       -1.63534290845239
O           -1.50965929485098       -5.41940264082444       -3.22232641418105
H           -0.73246863330706       -5.92358133237511       -3.52138196622357
H           -1.12882688928323       -4.74256403409454       -2.62005078567703
O           -3.03061055032680       -1.47309511358559        1.67152676301673
H           -2.94063237028882       -2.08183112192475        2.43016648909981
H           -2.94764254976938       -2.01264400410930        0.86778235791061
O            0.25551939889547       -3.76214389841478        1.48805331936068
H            0.36537420911869       -3.52861486845371        2.44085878343483
H           -0.50558843082096       -4.35004272881894        1.44243699565181
O            1.72160492904805        0.03682068786652       -3.10316782916457
H            2.38692298893562        0.54421968061894       -3.61900979753827
H            2.17673731642834       -0.80351156709614       -2.91313276955459
O           -4.00309531038564       -4.45152965785908       -2.15784148949178
H           -3.47545711449124       -3.86409074688269       -1.58180816803211
H           -3.35446079504344       -5.02095018832002       -2.59687462964828
O           -0.15340147567957        2.56140049054926       -3.05126426762080
H            0.77675215344163        2.79027697149368       -3.21884430847054
H           -0.25995827377332        2.55330752134841       -2.08561884247485
O           -4.58402990586017        0.67850062888107        1.16247112218129
H           -4.08771925565599       -0.14488205660133        1.36026304703486
H           -5.37251589326538        0.65710426123195        1.70893564630803
O            2.29942184837278        1.86062827071009       -1.23098903743888
H            1.81068951663853        1.20960073169756       -1.77559947263610
H            2.37904241752316        2.64527073495131       -1.78763829383035
O           -0.05812119278177        0.34829888082485       -5.10311021590706
H           -0.15940504390428       -0.58340999584712       -5.39035845939659
H            0.43133120836977        0.29934222085017       -4.25170336237315
O            1.88569267252218       -2.74138440041081       -0.35912984896028
H            1.08579851152197       -2.89217246149161       -0.89097989165803
H            1.82076296283134       -3.40985017752676        0.33705412883046
O            3.21491982741940       -2.70963127880448        3.79887757929655
H            3.70130472325939       -2.20300623742440        4.45285358622747
H            3.01657166333749       -2.07941754920903        3.06657507869931
O            1.19179546456147        4.86903981290230        0.26942139524253
H            1.38332925196057        5.27138516706069       -0.59625222960792
H            2.05209745304955        4.68855098008463        0.69463716517177
O            3.51745488634973        4.10861915557503        1.56422996711703
H            3.60256468568264        3.13995026069900        1.44691939340763
H            4.38454448415668        4.48343381834635        1.40014191073086
O           -2.78945552108097       -0.79825082951699        5.09889632160197
H           -2.73550127346847       -1.68174045463816        4.71141488343071
H           -2.02819893397573       -0.73890043776102        5.71185434368313
O           -1.34706878980243        3.22578729359564        5.58803970203876
H           -0.93227695015205        3.91223119657963        5.03396599924989
H           -1.49157952006198        2.47631627589054        4.95852634203932
O           -0.97570076615941        3.16310882097373       -0.50651346701276
H           -0.39247242971387        3.88900192113755       -0.24551241100719
H           -1.47048673550431        2.90480898465244        0.29346146137556
O            1.39949301757435       -3.44837632413046       -3.77513659245638
H            2.20813420583498       -3.01997410541076       -3.44755335257865
H            0.73705984335637       -3.36756648779099       -3.05929381145961
O           -0.07032325300596       -2.24214154247841       -5.78902286773525
H            0.53582810525529       -2.68482672014569       -5.16441541700976
H           -0.88543284829103       -2.77925142791730       -5.76682024428609
O            2.81645999714729        2.86620684063430        5.77501854817561
H            2.75209956429849        2.30381042328455        4.96869425388307
H            2.03589001478476        2.61606403975753        6.30125010455575
O           -2.33301439713712        1.73146161984149       -4.92360768863184
H           -2.75120161384514        1.39537566564686       -5.72056687594714
H           -1.45715966664983        1.27243020782308       -4.86843388609893
O           -0.38067419003960       -0.48803762878353        6.43837597349195
H            0.06519515380701       -0.49454560372452        5.56267229794418
H           -0.12806390803125        0.37055088256773        6.81477127957422
O            3.64054826023215        1.47154613186026       -4.39937223857395
H            3.37918761788338        2.34889256744636       -4.06619517166557
H            3.23896933937398        1.41103245695549       -5.28201929845110
O            3.43331442492294       -1.99785883238566       -2.43654924661162
H            3.06765602797900       -2.32392666353426       -1.59190790555600
H            4.01552785869707       -1.24563448596359       -2.19791238788863
O           -2.62737592924534        2.51767861453885        1.59281628671034
H           -3.31394340982998        1.87230107946470        1.33502907245988
H           -3.08733282499450        3.31620678595525        1.85897788765943
O            2.36479109347486        3.71995163949366       -3.44489922852095
H            2.04891215761283        3.89318348427124       -4.36169738532221
H            2.24727654298053        4.56929084706092       -2.98358692336098
O           -1.37771283255372        4.18044704953676       -5.76893544170601
H           -1.69352144434077        3.34004419782198       -5.37054946376640
H           -1.97411014994829        4.38563066331204       -6.49110039665499
O           -2.25523306394192       -3.83212238104793       -5.40996577957154
H           -3.09772473334700       -3.41556732097731       -5.12889168834287
H           -2.02161745662792       -4.45062137594781       -4.69197847102864
O            0.56027240374475       -0.25810069988041        3.87064228986097
H            1.36244929992083        0.29727143152824        3.79527438367673
H           -0.19745288033739        0.37448381914377        3.81199669868306
O            0.48337108351986       -2.95332705649201        4.02560608124200
H            1.43139962237642       -3.13193086255233        4.14606366229439
H            0.44527923380086       -1.97201521775255        3.98744293377263
O            1.40044289781606        4.00467992519418       -5.92915172100705
H            1.57729365005177        3.11547578395840       -6.28595097040513
H            0.42921749084395        4.07584657303907       -5.87649883951273
O           -3.08180243533431        3.13549395906079       -2.29370466958596
H           -2.33967255677296        3.23780078421905       -1.66058176234928
H           -2.68761709020775        2.73637415310604       -3.07995738314432
O           -2.34512435305250       -4.83068161101129        1.24588810145079
H           -2.36917005446462       -4.18006911974559        0.50892216327704
H           -2.90505956405479       -5.56117893346311        0.97696116726717
O           -4.48479560340797       -2.71263487161157       -4.30291464479031
H           -4.26865563469535       -1.81279258787999       -3.98534080952858
H           -4.50436306351838       -3.27979450158029       -3.50933416155842
O           -4.96175341429174        1.32823007520420       -1.55790802713813
H           -4.34793379282911        2.07349099438824       -1.75512490553218
H           -4.81100070217607        1.10039605613014       -0.62424554176102
O            0.48996549757916        2.68415869425859        2.11052017291061
H            0.13728964785800        3.34022571471104        2.73929356267855
H            0.81324059257155        3.19889059444229        1.36152994556687
O           -0.20309846977821        6.67254682846466        1.74136965514680
H            0.34979461718396        7.45334859828502        1.81163026950921
H            0.28807889298375        6.03489481038175        1.17118767348751
O           -1.59574530605264        1.26267196372389        3.78572034888524
H           -1.92253911651586        1.64384713557462        2.94671142721990
H           -2.22679965713788        0.59114503409005        4.10383081910105
O            2.46055046800509        1.57402929173750        3.45027590380989
H            1.71971055878836        2.03671414783013        2.96419625598963
H            3.12875510522821        1.41339040015405        2.77485454398808
O           -0.08542817810842        4.79797123478840        3.74411097033365
H            0.86772890450512        4.92647981545930        3.95885102904983
H           -0.30602718853978        5.52250598192115        3.13279047521249
