37
 energy: -59.876202397135 gnorm: 0.000157651686 xtb: 6.7.1 (edcfbbe)
N           -0.40886380173927       -1.22209404232637        1.83327298031927
C            0.15277997359232        0.14429981022896        1.80074640534340
C           -0.35736616501373        0.91649783234964        0.58553763488064
C            0.37084242605311        0.55007478514714       -0.70933652955624
C           -0.05398776564828       -0.76189838249774       -1.38278984662240
O            0.47741440360031       -1.04112040836582       -2.47740931363779
O           -0.90651113364163       -1.49154007636502       -0.81281416178925
H            0.28193871061813       -1.92530480350611        2.17591703390004
H           -1.26498285963807       -1.26662351801764        2.41064478946076
H           -0.12955044339651        0.66474466439892        2.71500774891492
H            1.24130320457028        0.09248477859639        1.75421479768078
H           -0.20707461894553        1.98148705517686        0.75987990985050
H           -1.42687575242511        0.74217460118627        0.45664068063241
H            1.44698012685817        0.48045216961811       -0.53401641791442
H            0.22509784268175        1.32633105341219       -1.46491073190752
H           -0.66628786380249       -1.48280543390267        0.85491797204207
O            1.42978854492748       -3.17200348797488        2.42942607412382
H            1.81601341594899       -3.37662352698064        1.55940059257750
H            1.09275173311915       -4.00482204819403        2.77316771423324
O            1.03507717281052       -3.74261242359041       -2.41152470355621
H            0.13866051549552       -4.07965629066252       -2.22658261206811
H            0.90259213342680       -2.78568121137796       -2.56978388156371
O           -2.77853145409176       -1.41918151380799        3.34956291203901
H           -3.49180977307730       -0.77833477018960        3.41501169306128
H           -3.17928496870224       -2.29104097284271        3.28368133853077
O           -1.04598899262838       -1.45970901782308       -7.75734452129551
H           -0.88136185785326       -1.55958706675620       -6.81465759958720
H           -0.19730557731516       -1.55615139344707       -8.20116157428218
O            3.45873820189358        1.00791187557866        1.48493321131806
H            4.23707879433608        0.45874539743410        1.61955988114554
H            3.68277254353580        1.88834400559452        1.80191833250713
O            2.46668889838747       -3.78843728686987       -0.07665232878947
H            3.37192379987503       -3.64301393527837       -0.36479779584218
H            1.92907293067037       -3.82762830811080       -0.89497889299546
O           -1.65952782012902       -3.95074055868711       -1.72208374618801
H           -1.45196701744605       -3.05261741436692       -1.37877560567636
H           -2.38493750695471       -3.83769513678791       -2.34271043928766
