34
 energy: -56.714251075782 gnorm: 0.000679834985 xtb: 6.7.1 (edcfbbe)
C            0.56889062949837        0.11869930226145        1.00072733198014
C            0.06532202533731        1.31058687681319        1.82928045324536
O            0.31454670233469        1.28127678464637        3.06042100530616
O           -0.55209683754813        2.22938852574111        1.24975608678799
C            0.23898419973427        0.21492514038287       -0.47702289002057
N            0.79460431932046       -0.96099444890508       -1.17437762384012
H            1.64748815503350        0.06908790702055        1.15087201039432
H            0.12418549820919       -0.77580793186998        1.43678784910190
H           -0.84290292124398        0.26017555281485       -0.60566236353993
H            0.66028665537210        1.13481263626821       -0.88387194926645
H            0.40296294945640       -1.84063045357983       -0.75679640751997
H            1.83448117093003       -0.99603331493491       -1.03565600666835
H            0.58769658443830       -0.93825061685262       -2.17245998762532
O            1.70619794238665       -0.90176989474324        3.79672188983375
H            1.84150003281394       -0.88611793548764        4.76015505038678
H            1.20080920709941       -0.08134715254256        3.58063641040797
O           -0.18770319955648       -3.21863517168011        0.02717671840431
H           -1.09463417782886       -3.53135420406662       -0.02813621957407
H            0.03641621440041       -3.17701085345698        0.97602519869407
O            3.83455572590841       -1.14799586753576        2.04093718604172
H            4.39514284700692       -1.82920284297763        2.42327683789191
H            3.09291283032329       -1.02499100001063        2.66432732857122
O           -1.19109712256542        4.24017231543677        2.98619615037612
H           -0.84116487376199        3.86331923603882        3.80001930063507
H           -1.00344718189943        3.56262933539968        2.29687201460503
O            3.48998987891702       -1.02429891398797       -0.69304469856214
H            4.11922604097494       -0.36307323952557       -0.99198141082689
H            3.61968545163703       -1.11664104479231        0.26959302678418
O            0.32680166215188       -3.03551942028230        2.73019634892368
H            0.65191065166451       -3.80617793953681        3.20487073473913
H            0.79998588434185       -2.26604541138104        3.10560714060217
O            1.87862601170487       -0.89570753484427        6.61074507749885
H            1.57954746929430       -0.08715973440197        7.03688662307441
H            1.54434357412280       -1.63391468539514        7.13152778311657
