34
 energy: -56.643303714148 gnorm: 0.009944832091 xtb: 6.7.1 (edcfbbe)
C           -1.30529986800341       -0.11654356454480        0.88207221733883
C            0.14234140909444       -0.11849557504506        1.43897553281911
O            0.77922038608303       -1.18921071550209        1.36407860183158
O            0.58689956257318        0.95235260087627        1.88997883581255
C           -1.39496012128127        0.66222490472533       -0.42950664983196
N           -0.28253791984176        0.29707338797585       -1.33346450866463
H           -1.62583104986643       -1.14658616753724        0.72626213247028
H           -1.95691032018310        0.34938335583491        1.62000963161397
H           -2.34593608847931        0.43680739233472       -0.91675637476562
H           -1.34651630739345        1.73472166588251       -0.23697527639372
H           -0.02533960940687       -0.71962122209779       -1.24536990452308
H            0.57497958637935        0.93452331436162       -1.14850771477334
H           -0.52301262988846        0.40748966464738       -2.32855361204355
O           -0.53818833593773       -3.42674437022818        0.79457602013953
H           -0.80415505453215       -3.87699509206259        1.60076298379054
H           -0.06630964973127       -2.60741815418889        1.08161505696734
O            0.00099001219853        3.31696352668052        0.82820793973217
H            0.13782826903834        2.48589918776365        1.34877439346783
H            0.40046246092717        4.02057605253604        1.34094381175199
O            3.11999591010647        1.20897443309141        1.07193083782443
H            3.52174379860133        0.33815179474288        1.04331178964500
H            2.27535908511846        1.09804242531576        1.56493564532593
O           -0.23112863322745       -0.65035437508581       -3.90529031885217
H            0.46029409712127       -0.58370661639751       -4.56822693853194
H           -0.05274727571154       -1.45626515956833       -3.39067084769948
O            0.25035029071938       -2.35653399492881       -1.66066388379832
H           -0.32997761604808       -2.84524607990565       -1.06492051447199
H            1.14539445234941       -2.55756598896857       -1.30784711468886
O            2.31974538795445       -2.94923386748719       -0.06516489170370
H            2.03418535545236       -2.24505564569402        0.53729444905833
H            1.92936582621213       -3.75325633587409        0.28818105368067
O            1.60720323746010        2.06225402770501       -0.96816798956967
H            1.07111440024065        2.71002209965321       -0.46612800815151
H            2.30248195188513        1.78306009095749       -0.32998838479465
