34
 energy: -56.714258169424 gnorm: 0.000585600476 xtb: 6.7.1 (edcfbbe)
C           -1.11152477373384       -0.35682421363707        1.09795452847276
C           -1.44794946265379        0.22411628550988        2.48489043833649
O           -0.73590039390613       -0.12895345818307        3.45814406396191
O           -2.39263610880113        1.03524320902299        2.56599058404504
C           -0.10455743115985        0.55198301356761        0.40037415649147
N            0.18746256077710        0.07090955778074       -0.96337938190721
H           -0.70619885734013       -1.35991731088724        1.22330725693216
H           -2.04173025237899       -0.39575125510216        0.53053267568638
H           -0.52137533837884        1.55875982602319        0.34320419876159
H            0.82294295752705        0.58384575454793        0.97292897396138
H           -0.67705313514132        0.01474207443613       -1.50315893932395
H            0.62930549707931       -0.88493534996817       -0.94269712893480
H            0.84148084071710        0.73776945776826       -1.43887986071617
O            2.35187369028721        2.09582271363593       -4.84911770093856
H            3.04339221183333        2.65917433554768       -5.20865116643792
H            2.27892500246474        1.32643336605839       -5.42161690279926
O            0.20953303214382       -3.66462922516876        1.23004406014239
H           -0.15329025187839       -4.53348277025800        1.41814204716890
H            0.46347925899678       -3.27537519871793        2.09336998048547
O            0.82891936030915       -2.39672958520588        3.55305513411236
H            0.16486697163025       -1.68153990172465        3.60604220444900
H            1.67542444713647       -1.93203830399685        3.53041314101344
O            1.97110596047930        0.39206696893699        3.16300065750726
H            1.01721254756604        0.28366501933472        3.32868678670575
H            2.27435654446281        1.07018077589440        3.77258178084949
O           -2.70907189392754        2.64374299647185        0.36329525847475
H           -2.67004706759558        2.09029882411414        1.16881546898164
H           -3.40664164053765        3.28554386662817        0.52052565717069
O            1.32720039897532       -2.40365277645236       -0.95289038170681
H            2.27560587777338       -2.44056046809125       -0.79642253438965
H            0.90690682547177       -2.91739846291954       -0.24079322601896
O            1.78233115755694        1.97275640754435       -2.11298249600451
H            1.99067767153319        1.94305122541613       -3.06283347120497
H            1.45472279267176        2.85837560203493       -1.93553086333330
