34
 energy: -56.707778473872 gnorm: 0.000215220777 xtb: 6.7.1 (edcfbbe)
H            2.15905039436348       -0.76785070616673       -0.01279249062657
C            1.29386976382447       -1.08259337959259        0.57283650549166
H            0.48330729931399       -1.75562830275481       -1.22629614553352
H            1.53175373045269       -2.00651516405882        1.10197259775811
N            0.15812708235245       -1.31199067111579       -0.34131609227885
H            1.77945102174590        0.20209983947956        2.25194532260309
C            0.94288799790189        0.00683257644894        1.58208292648120
O           -0.18311630099169        1.31090509685920       -0.09466417424788
C            0.55585827979934        1.35427644051341        0.92329384890846
H           -0.23013556017087       -0.35918464700956       -0.52874950020459
O            0.98402673941617        2.39901601603819        1.45085685957032
H           -0.56812252198228       -1.91183823485095        0.10737574868542
H            0.08886926036811       -0.30394096085911        2.18777099248519
O            0.62593942545497       -3.67506004254232        2.64424724465925
H            0.88517708467799       -4.30283998732301        3.32344638416325
H            0.13408136303653       -2.96739942352631        3.09005480168052
O           -1.41017258658227       -1.77081528380302        3.31919114102394
H           -2.17281913703135       -1.68431063047423        3.89645224532842
H           -1.73784167891567       -2.12429330372441        2.47255084188561
O            3.60722123125564       -0.82962628328200       -2.16375592940274
H            4.52319718272498       -1.12523542328731       -2.14665142984212
H            3.60362869108936        0.07531682584732       -2.48722016814206
O           -1.51269982976743       -3.13084283891293        0.88364857885778
H           -0.78688007107007       -3.63041662090966        1.29253303503736
H           -2.00148016060034       -3.76136487474326        0.32064505416943
O            1.35567580017942       -2.45428602111176       -2.54816565330410
H            2.15654738390133       -1.90537689994209       -2.51389435526373
H            1.63752235256023       -3.36342830964237       -2.40520857247054
O           -3.17347932895823       -4.01435291533424       -3.36125200054056
H           -3.27846550691198       -3.06425139709058       -3.47592639148445
H           -2.58142118973966       -4.32013411884393       -4.05543652188569
O           -2.88188609981330       -4.89636459164875       -0.72613853228385
H           -2.95041687485196       -4.61812111244853       -1.65754871904074
H           -3.75537823704076       -5.20920165019002       -0.47560745232126
