37
 energy: -59.864340479524 gnorm: 0.000329198932 xtb: 6.7.1 (edcfbbe)
N           -1.15006705912985       -0.62274967364008        0.54734487260331
C            0.10925932385233       -0.26318126911181       -0.13360879433042
C            0.01207964966146        1.08589588209199       -0.84588056697198
C           -1.29000537689729        1.29811559984929       -1.63546839332899
C           -1.74839012127772        0.05938647297019       -2.43086258737785
O           -1.47331544439425       -0.00818352954768       -3.64648398644246
O           -2.39977121465109       -0.80909461916213       -1.80028615297066
H           -1.03831565076498       -1.52083424448600        1.07029949957519
H           -1.45119886122982        0.11382425494798        1.18554214274270
H            0.91802337595239       -0.22655294440848        0.59527484741628
H            0.33538760546490       -1.04298824099182       -0.86453968733895
H            0.85725063798106        1.15374469380461       -1.52998492846879
H            0.09956452065968        1.90178601582802       -0.12599417934883
H           -2.10867178258799        1.56074917751252       -0.96206757147405
H           -1.15441740388646        2.11614605930142       -2.34411237785557
H           -1.86614708438840       -0.76162668497171       -0.21533357482296
O            2.83387412434968       -0.73945267219130       -4.15658634161791
H            3.25834254214379        0.11003620510030       -3.91385203010770
H            3.51486138531607       -1.25218471297505       -4.60372290769176
O            4.09363436531684        2.25686313481848       -0.84735002650813
H            4.62323587874917        1.65157110651434       -0.31898126824201
H            4.23990994645735        3.14272776374539       -0.49976419451567
O            4.03163855743573        1.65160285792369       -3.56664273547001
H            4.05021289741790        1.86720978302134       -2.61580922200936
H            3.70532221824763        2.43476387570526       -4.01954452865875
O            1.16799945132535       -2.29093011627462       -2.42930495874936
H            1.78935953036387       -1.76101220938605       -2.95478499750974
H            0.47706627080579       -2.56123943088979       -3.06124883273650
O           -0.84155376357203       -3.04207904940292        1.83407111160693
H           -0.17257198096566       -3.58849215534268        1.41043879400798
H           -1.64521303614013       -3.56812059996618        1.89229945692606
O           -0.77533318068909       -2.58710633056159       -4.42742035329261
H           -1.28097288567694       -1.82825453923992       -4.08232741600243
H           -0.28584150369140       -2.20335574881471       -5.17469307118721
O            0.52311509655341       -0.41661494032977       -5.70904297140858
H            1.33810863071541       -0.48516613104151       -5.17454816329620
H           -0.15066265889733       -0.07389704029932       -5.10357390530478
