37
 energy: -59.868543854170 gnorm: 0.001774150093 xtb: 6.7.1 (edcfbbe)
N            0.12110471290078       -0.14262758422942        0.80903804512834
C           -1.00796635514462        0.67602434245590        0.30737456252391
C           -1.98019979846523       -0.18147952945435       -0.49675149485917
C           -1.48913724426297       -0.50599261770107       -1.91114034129895
C           -0.50883417451033       -1.67385312486247       -2.04344960322991
O           -0.49121844344879       -2.27178124243837       -3.14891525645347
O            0.23375638495367       -1.98310194197598       -1.08454374838414
H            0.96064516980830        0.42164115581199        0.94224516864166
H           -0.12097928985726       -0.61791313046651        1.67994716152897
H           -1.52787679553696        1.13317864035066        1.14863957804699
H           -0.61452684781463        1.46763600610199       -0.33290719317332
H           -2.91450213380491        0.37004884598691       -0.59704232596603
H           -2.19447208487069       -1.11013516122782        0.03608922518125
H           -0.99567214829760        0.36939861860291       -2.34019753873885
H           -2.33575910927492       -0.74155688351062       -2.55834589843911
H            0.30821160214484       -0.89958556054775        0.07526616207874
O            1.73025389983728        2.98650958297416       -4.15921617551898
H            1.16664860586533        2.43459232993424       -4.72822518777467
H            1.84412281798117        3.82270946570988       -4.62066721816617
O           -1.91315889976808        2.50924632745961       -3.78808671591698
H           -2.42734875945085        3.22715807305994       -4.16847357223263
H           -1.33850966552703        2.17391622667437       -4.49934436987323
O            1.05869706065220       -4.37191439997927       -3.95806595103354
H            0.48054580548193       -3.65946457120940       -3.60853911783636
H            1.75119381665549       -4.49870178231126       -3.30195593513339
O           -0.38922902246664       -1.18059286064783       -5.61645976112999
H           -1.16041368407086       -1.54898285435467       -6.06036839429818
H           -0.41151035775866       -1.54912252456047       -4.70908010092612
O           -0.14445873752969        1.56378684981281       -5.74811901630853
H           -0.19842397439890        1.73248923991876       -6.69566276774858
H           -0.15037915898159        0.59201365335395       -5.65031687149639
O            0.10317636813550        2.77157840447180       -1.85977807836418
H           -0.69206824540475        2.76590483504357       -2.42261975101238
H            0.84120082388429        2.84944822383560       -2.48643721646867
O            1.54931738803337       -3.13866492317061       -6.45808590119377
H            1.02460682408864       -2.34505761473497       -6.25965123162498
H            1.43867565020141       -3.70569551417988       -5.67400116855586
