37
 energy: -59.880297858069 gnorm: 0.000407058832 xtb: 6.7.1 (edcfbbe)
N           -0.28977454341134       -0.58911423355730        2.45774657343797
C           -0.78117407001861       -0.67586244699066        1.07268126830934
C           -0.30548088545810        0.52025857530800        0.25114670489436
C           -0.35278332448738        0.22486438883326       -1.24298856474591
C            0.74711084586541       -0.74825900232334       -1.72081200787624
O            1.66385662600153       -1.06734428199492       -0.93447284545764
O            0.66467942545581       -1.15337441363510       -2.90547454200103
H            0.73825697069871       -0.68355597999196        2.43926034399133
H           -0.54432367695261        0.32550663795351        2.87516925066609
H           -1.86949966946823       -0.72241631420870        1.07345635725150
H           -0.40011248850449       -1.59235155531745        0.62030414115298
H            0.73013096578486        0.74658853288549        0.50577131473957
H           -0.91510651023681        1.39679370250831        0.47008082714582
H           -1.31350052298738       -0.19570948892257       -1.54585867210714
H           -0.20744310713645        1.13798246796333       -1.82631854382528
H           -0.70609926846322       -1.37262107845738        3.02949383381064
O           -3.64330533853402       -2.07684478324695        5.43185310196218
H           -3.90231387478247       -2.69423897138024        6.12198084476499
H           -4.42330867672945       -1.89833940717521        4.89700593359950
O            2.81454808815994       -2.94471925389781        3.65420654203618
H            2.66554225711727       -2.36660850264720        2.88401441972583
H            3.45865100812194       -2.49748682806433        4.21096015024817
O           -1.64697162585612       -0.75471210097108       -4.27320932258205
H           -0.79984862545258       -0.90393232105525       -3.79719163941044
H           -1.50294935845448       -1.09073309158019       -5.16342773701303
O            2.42277996721476       -0.97443514191502        1.70353973250552
H            3.16006403760195       -0.35804090451787        1.66433081162610
H            2.16475453162683       -1.12578422216284        0.77399218836097
O           -0.95540542658032        1.91274492900388        3.54003303474372
H           -0.28673000710566        2.41155999293723        4.01799746412648
H           -1.78616886956647        2.01162605142923        4.01428870838651
O            0.61659252042599       -4.06301581576116        4.87037381734355
H            0.66344151713045       -4.99911095189330        4.65810355152289
H            1.40490843109725       -3.65626382377709        4.45730206732461
O           -1.44216519252803       -2.64406587412491        3.75736755518263
H           -0.75904715668221       -3.16937989650911        4.21997846892491
H           -2.12438197276751       -2.43020559296610        4.41508186724852
