37
 energy: -59.880260135340 gnorm: 0.000186543221 xtb: 6.7.1 (edcfbbe)
N           -0.32142660185708        0.13432999229109        3.11729012258611
C           -0.21942045874447       -0.56334278207848        1.82823745746623
C           -0.08081259212143        0.42181076441155        0.67186261494238
C           -0.00430645614337       -0.29540928998185       -0.66908434199154
C            0.08333859705587        0.67185318585664       -1.88195518390420
O           -0.01798653353424        1.89772233597989       -1.67062143753383
O            0.24602760870753        0.13205999345604       -3.00078832656405
H            0.52471817495178        0.69945749485401        3.31816498810654
H           -1.12752467751168        0.78675795656378        3.12993904798730
H           -1.11331002678196       -1.16857511370274        1.67380923774647
H            0.64878352009637       -1.22276049683677        1.83979857756304
H            0.81829695213373        1.02949574709967        0.78194932584569
H           -0.92864707720154        1.10758641600545        0.63697435534322
H           -0.88897765353814       -0.91328125303619       -0.84285317046610
H            0.87004300730445       -0.94709127246289       -0.73230659112728
H           -0.44792486522155       -0.53710086840512        3.91685351529502
O           -0.58700450666634       -1.39818201510317        5.34415100371898
H            0.23214749703158       -1.05795540029759        5.75933328147303
H           -0.50106668095088       -2.36346304869926        5.31821185134103
O            1.66273755828180        1.78493429343967        4.16826362367199
H            2.36487797979955        2.32792474589803        3.80428442487267
H            0.95286743604325        2.40279194029004        4.45780440726481
O           -2.46687343691892        1.80826148950623        3.70235709412167
H           -3.25880306786413        2.12212176763011        3.26206125251560
H           -2.75479221300750        1.17931747286307        4.40501085879512
O           -3.03959056908060       -0.12848068726942        5.48899192133053
H           -2.17475493549195       -0.57187149296949        5.59232019937854
H           -3.67013495701595       -0.81921958762976        5.26892582667195
O            1.83263121901952       -0.32399821830932        5.98101267506170
H            1.83312867867530        0.47102670928621        5.41477798736367
H            2.64196312257293       -0.80114600689044        5.78127671608219
O           -0.44591522050265        3.31100115269848        4.86563507455131
H           -0.70450444601825        3.40809381489183        5.78639949512306
H           -1.19519199581048        2.87657398233149        4.41365321663767
O           -0.34932345446710       -4.20216726828445        5.25192044922548
H           -0.73530715506059       -4.79194687797542        5.90531771190924
H           -0.09071977015671       -4.73621857538060        4.49532073756839
