37
 energy: -59.879839366467 gnorm: 0.003816229802 xtb: 6.7.1 (edcfbbe)
N            0.58357515895672       -0.41206332718833        2.31561382297932
C           -0.12926571002984       -0.72899592726771        1.06921448303612
C            0.23315706681953        0.20766058076458       -0.07496492878037
C           -0.67268213953531       -0.04167505944168       -1.28592037934768
C           -0.56335040859157       -1.49128762252314       -1.80434480563192
O           -1.20980072666367       -2.37151800679445       -1.17571141530601
O            0.15042321482780       -1.71295054397442       -2.79930412763764
H            1.61262813423136       -0.54169068771654        2.20450801006422
H            0.39079238435998        0.56029301294806        2.61328236213177
H           -1.20360354049278       -0.66709625913471        1.24684666114526
H            0.10307518346032       -1.75261705511530        0.77990122460999
H            1.27118957131255        0.05785481597967       -0.37670761891538
H            0.10801839107364        1.24459867800937        0.24270340470916
H           -1.71625709556183        0.13218547889911       -1.01542635519924
H           -0.39637957432524        0.62020483114571       -2.10822798170148
H            0.25821691671198       -1.09820822089989        3.03198443065498
O            3.23561207400813       -1.15068523426788        2.30706811928016
H            3.68198744696822       -1.61254445642206        1.59436103805631
H            3.04554894926268       -1.82766523347224        2.99485256006943
O           -1.50654565620244       -3.70351286089376        1.37465988598752
H           -1.62333607574767       -3.14288246665977        0.59199749134894
H           -1.19319219779185       -4.54077823448821        1.01394683499432
O           -2.38936748615315       -2.50104408228895        5.56706161130803
H           -2.28183639506785       -2.34937678441064        6.51251660308695
H           -3.13008764215694       -3.10502089975143        5.44751019586550
O           -0.58965039538093       -5.03199347729049       -1.15111994323232
H            0.01052215068134       -5.25574558558915       -1.86711545328501
H           -0.82926172658225       -4.08890131012819       -1.28824751244486
O            2.36525944106284       -2.95614104094765        4.15423574095444
H            2.46950053065447       -2.79133814415432        5.09474144146225
H            1.40280633740950       -2.96870732365539        3.98517528565240
O            0.06712660626420        2.26761645867481        2.98904896093451
H           -0.71344319302887        2.55853840663541        3.46903813720609
H            0.81250506342052        2.78801442424126        3.30256510353124
O           -0.34080426106741       -2.59676218191996        3.67396731945888
H           -0.74676097088955       -3.03365405373772        2.90325457336300
H           -1.04036842616137       -2.54445560730565        4.34850421949308
