37
 energy: -59.877284007595 gnorm: 0.000538568045 xtb: 6.7.1 (edcfbbe)
N            1.41239566263084       -0.12307244990222        0.80887081772976
C            0.68096344558621        1.15008556623850        0.73535103926844
C           -0.72713483191452        0.95044186125314        0.18016164576946
C           -0.79343669653511        0.80616125625515       -1.34589738470570
C           -0.45090980246444       -0.57809450677208       -1.93788788527552
O           -1.15021708000722       -0.95560205759890       -2.90587285088838
O            0.50054355533388       -1.23212388856090       -1.46000340962278
H            1.02376316446029       -0.72878474015212        1.55612297674194
H            1.28230431607427       -0.62556242638654       -0.09961434360805
H            0.63337788193477        1.58068925347514        1.73615206767148
H            1.22973159042712        1.83866709707326        0.09157521275783
H           -1.32908567837854        1.81998151111543        0.44682551655694
H           -1.18506130680971        0.07436875732091        0.64228916315171
H           -0.11017818719260        1.51572040566712       -1.82144673985138
H           -1.80000481884580        1.03613393922180       -1.70228906103873
H            2.42566918980367        0.03802855385646        1.03574911572413
O            2.29345704375833        1.93314090942893        3.55659788242672
H            1.97488623389443        1.22014936017522        4.14461541703031
H            2.56470978078115        2.65954886882672        4.12205418439591
O            3.45018923559295       -1.73859693392246        3.74923093274823
H            3.06091320870500       -1.19954333363945        4.45596994674137
H            4.04580924450972       -2.36978565258901        4.15981784396585
O            0.81251215415933       -1.88217653490814        2.89383310104786
H            1.76680192186057       -2.05476252294069        3.01257952012763
H            0.39296945549477       -2.72754192779827        2.71986485683640
O            3.83891120135693        0.35730879582678        1.90317827584485
H            3.89043961644468       -0.43107219291428        2.47147605366583
H            3.42687601470152        1.04280437013644        2.46654317055994
O            2.83968351042364       -5.48780232085402       -0.17663421756859
H            3.38435894884368       -4.76047689134135       -0.49525453217208
H            2.02961104460657       -5.47285867465923       -0.69523918185959
O            1.39550903422497       -0.21097081959269        5.05823373614772
H            0.78957130097754       -0.15701436431180        5.80126084816725
H            0.94479775728242       -0.72009349665932        4.36015487659777
O           -0.94488025831723       -3.48975472094035       -3.92402480909081
H           -1.28273068628590       -3.36641217948689       -4.81680324877847
H           -0.97864916710909       -2.59874387005829       -3.51156053726791
