34
 energy: -56.707416218806 gnorm: 0.007351030158 xtb: 6.7.1 (edcfbbe)
C           -0.23704806547159       -0.70014574366311        1.55909909500721
C           -0.30290115602470        0.13745474922507        2.84959976726255
O            0.21286163526614       -0.33153076348122        3.88555670169475
O           -0.90085277585492        1.23985837466100        2.78804086913759
C            0.19940396889231        0.14405809922206        0.37229541703885
N           -0.02163464713390       -0.58712686577189       -0.89204693380727
H            0.43583578399395       -1.53839980200395        1.73644746914029
H           -1.24591169007059       -1.08152948202747        1.39392766605823
H           -0.38418612201583        1.06599455947701        0.36373740002809
H            1.25423753419427        0.40392277773013        0.48106403398761
H           -1.08489886913878       -0.66846083528176       -1.09781032348394
H            0.37370580288714       -1.52804584833961       -0.82806196923385
H            0.39831194515534       -0.08828469197184       -1.67836629959885
O           -2.71659797166106       -2.55390165673841       -3.57424675780978
H           -3.08074589427245       -3.42639654984416       -3.38538964500687
H           -3.03001269483213       -2.28968828851637       -4.44442657242880
O           -0.33102621626634        3.57244208476836        4.18426006952613
H           -0.49201443440025        2.73990372578974        3.70105196986747
H           -0.97795235988131        3.59422568841093        4.89485991862395
O           -0.06760889447386       -3.00152781956909        4.08022880311712
H           -0.06082839704939       -3.24779239382734        5.00760122656672
H            0.09507884412386       -2.03653449106953        4.05893064845938
O           -3.68443469701258       -1.71503428270880        0.77733231961554
H           -3.18233057527416       -2.37239963871241        1.28912768210161
H           -3.73989298334091       -0.91740380596837        1.33220759580855
O           -2.11860937696415       -3.53066876585375        2.27663101714651
H           -2.49032974493011       -4.35628971453978        2.58852223814987
H           -1.38797341504434       -3.31574722060007        2.88556258477665
O           -3.53352068644866        0.72367792444123        2.12814110300428
H           -3.92861342851007        1.53408664597666        1.79202659570262
H           -2.62152446079600        0.95383412581211        2.38329109106735
O           -2.57681059408773       -0.72495545592292       -1.48154500911474
H           -2.68106943831982       -1.35085320409273       -2.22111444832734
H           -3.06035192520176       -1.10775043521924       -0.71810732408479
