37
 energy: -59.879563627832 gnorm: 0.000269954472 xtb: 6.7.1 (edcfbbe)
N           -0.75355385616496       -0.77744652653803        1.77573015144987
C            0.62615769390021       -0.37651650292845        1.47561805403818
C            0.66445724578222        0.84298294056620        0.55400869892803
C           -0.28355976592060        0.74762631656108       -0.65217735805786
C           -0.27733236286541       -0.62839797378652       -1.35729502926244
O            0.39770071186738       -0.76989408136803       -2.39290559226850
O           -0.98792358354578       -1.52634361578853       -0.83070591876746
H           -0.79333440473488       -1.63688158109781        2.36493337939380
H           -1.31498182933482       -0.02923461723393        2.23999290701868
H            1.15925686996778       -0.15185042245288        2.39975380662074
H            1.12339553317019       -1.21001166153450        0.97463479883592
H            1.68651827298522        0.96003913615090        0.19053678906193
H            0.40283908606905        1.74024276570842        1.11580826544199
H           -1.31279915527741        0.94616218116561       -0.34884892371659
H            0.00649872244927        1.49161130822725       -1.39604668089794
H           -1.18305828436972       -1.02943154501374        0.85875775330694
O           -3.55155435511981        1.63105702961290       -0.25516625001097
H           -3.48426412842409        2.27267760092267        0.48621181063861
H           -4.06143981877957        2.06192959464270       -0.94468713395096
O           -2.85940397846324       -2.96245590027409        0.77980372845019
H           -3.39750589429639       -2.16871517261931        0.96437660222437
H           -2.27457473045003       -2.70416124069781        0.05297111767342
O           -1.20850065178512       -3.23336477779277        2.92496975190864
H           -0.62659589472588       -3.98692084172803        2.80389627307152
H           -1.89149596292604       -3.29457414562015        2.22116137715242
O           -3.25485175748183        3.19831910245470        1.96379600760035
H           -3.00222022210035        2.42600615713655        2.51338097617043
H           -2.56261433429788        3.85399332688771        2.07934359176554
O           -4.19935407238570       -0.54249738054507        1.26044324140434
H           -3.94674455581727        0.12735097532606        0.59289256493798
H           -5.15972290218747       -0.53856623412447        1.29823273618204
O           -2.59996784535588        0.78539830435519        3.06666659073505
H           -2.68847575146059        0.45153221535617        3.97610244965912
H           -3.25618756663325        0.28731458266216        2.53853931057714
O           -2.88476795754864       -0.48454701595886        5.52990949938890
H           -3.55748724407081       -1.16881165539488        5.59349085470379
H           -2.14252526972859       -0.76319764524265        6.07373979868689
