! Opt B3LYP D4 def2-TZVP TightSCF TightOpt CPCM(water)

%maxcore 5000

%pal
nprocs 15
end

%geom
	MaxIter 1000
end

* xyz 0 1
  C          -0.55690362213987      1.04025375194501     -0.47780931096045
  C          -1.18820378713145      2.28911909802692      0.13144375653629
  O          -2.42612063218262      2.31184567493466      0.32472303344405
  O          -0.39506642103924      3.23950809638615      0.39751913821116
  C           0.56491247490841      0.47913571905855      0.38509920163671
  N           1.22564202232606     -0.67897020712428     -0.29306622278200
  H          -0.13802835576448      1.33004130590610     -1.44563460458922
  H          -1.29647192347830      0.26966969875602     -0.68804387605543
  H           0.17780785964196      0.11420217546865      1.33510741805920
  H           1.33380093950183      1.21885795334245      0.58603246456182
  H           0.60905296811007     -1.50810657346733     -0.33945789719531
  H           1.52458947999805     -0.43447164979627     -1.24248030928871
  H           2.07458194116314     -0.92639741283819      0.21482204731553
  O           1.54032584893378     -0.59152896563115     -3.33301761291800
  H           2.01919783108415     -0.53185263338033     -4.17266391457764
  H           0.56490107804203     -0.67242961584118     -3.54384128471279
  O          -1.06251050451948     -0.75640552844008     -3.82155662283401
  H          -1.54646193841043     -1.16169731246267     -3.06833176356153
  H          -1.35724909900355      0.18134118339312     -3.86138680616145
  O          -0.91409305023976      5.53170441596280      1.78355794979778
  H          -0.72063275203029      4.72947108397042      1.23934687235125
  H          -0.87115441349213      6.27600684006597      1.17325977384265
  O          -0.43608376224386     -3.00383066938039      0.02410077829274
  H          -0.71366067737357     -2.95582859836880      0.94736499225789
  H          -0.10875098759535     -3.90171195730255     -0.12780798336542
  O          -1.48523313756982      2.00675626350121     -3.92944789853339
  H          -1.98809604003380      2.29781335392309     -3.15808448188699
  H          -0.54007444322603      2.20081247271274     -3.71900709544493
  O           1.19328410644872      2.32423881130308     -3.44061019640561
  H           1.43102775728636      2.85123231237663     -2.64144950460472
  H           1.50146461768416      1.41988485265976     -3.27378221042588
  O           1.78898987352223      3.68782333649253     -1.12843105163806
  H           1.87894048086690      4.64678771092959     -1.20298298688563
  H           1.00156458585484      3.53361842727434     -0.54327663579536
  O          -4.52669711922476      0.58905128790521      0.61012073461591
  H          -4.62252547649715     -0.04274768092931     -0.11182141616622
  H          -3.72157711578237      1.12097241542670      0.43173155118199
  O           2.58030687892913     -3.06309521251304     -2.48718915645875
  H           2.14838833754289     -2.23516544716144     -2.78639701028954
  H           1.91763868335516     -3.50431083952900     -1.94669988151130
  H           4.26765993360124     -0.17685214193336     -0.80931987444468
  O           3.80849769749847      0.66942002898448     -0.61896001217983
  H           4.24341802003523      1.05839054303706      0.14676228845028
  H          -1.77524017137696     -2.40900071910728     -1.09836885124456
  O          -2.42164004801547     -1.97360532973260     -1.69642746965640
  H          -2.82848439677183     -1.27654733915969     -1.16345267033133
  H          -1.55983755200240     -1.19191231439153      2.75444732901196
  O          -2.46131717529013     -1.40737692774463      2.48270544951780
  H          -2.48615518858364     -1.21415486466166      1.53812528037008
  H          -3.17289976019563      3.62766687652027      1.33686972560355
  O          -3.52149256099499      4.34872332537264      1.90611978591632
  H          -2.75027354849192      4.93622486754475      2.00418985778174
  H           5.28822908410182     -2.33137676297155     -0.71995391377237
  O           4.83658883292138     -1.79090881865081     -1.38077576238384
  H           4.07415432734338     -2.32264836066155     -1.69986313969487
*
