34
 energy: -56.712844245293 gnorm: 0.000387740914 xtb: 6.7.1 (edcfbbe)
C            0.86322029678301       -0.02925741686276        0.20440644364829
C            0.52844882664348        0.24823787062752        1.68656975915714
O            1.17498903504811       -0.36921997491098        2.54887025381324
O           -0.38219664170693        1.08219325934847        1.93033391481212
C           -0.04731616389140        0.71963233039130       -0.75414259845357
N            0.29410914537979        0.43350890773870       -2.16002747153312
H            1.90788648695210        0.25372841588831        0.06463428360943
H            0.78958048512215       -1.11065135336690        0.07648773609047
H           -1.08254327629642        0.44017662123664       -0.55716661022196
H            0.05055678577244        1.79092638837371       -0.58365700842828
H            0.19313163113427       -0.56142118589690       -2.36235166316982
H            1.27995340455644        0.71604366853639       -2.34699563791242
H           -0.33627565467219        0.99625732098401       -2.79661119370678
O           -1.09834851643722        2.28332186483637        4.22508507277624
H           -0.81244957357903        1.76547479993272        3.43591766871381
H           -0.71438295414359        1.84228381598810        4.98738257761765
O           -1.33360422251087        2.02980247350289       -3.59604121944553
H           -1.31111084653363        2.80216127032137       -2.99742375189991
H           -2.26051564998758        1.80543021424444       -3.71772831912572
O           -0.83435352244249        4.84390774171344        3.13933998718600
H           -1.64379328361893        5.27872713768857        3.42917834055490
H           -0.80767010176990        4.00050564965185        3.62822721428828
O           -1.59175735244693        3.35415690008274        0.95151316438738
H           -1.19957073852102        2.50612440237359        1.22935091222695
H           -1.21979889326379        4.00712697091525        1.57918059032222
O           -1.31985378587819        4.00039138407580       -1.69777590218068
H           -1.63207093687836        4.90513311098254       -1.77324657641527
H           -1.46332514050965        3.74120447001816       -0.76568905915190
O           -3.57109916891089        3.22987451899566        3.00729174948242
H           -2.91694976452708        2.81438581733076        3.58753915804263
H           -3.13485236841538        3.25999468016113        2.13774039963530
O            2.89379140897607        1.24822540748682       -2.69729485283695
H            3.08085999148093        2.18896695797290       -2.62840911286460
H            3.27845205909979        0.93862355964994       -3.52335424906247
