16
Coordinates from ORCA-job 00_Aminobutyric-acid_zwitterion E -363.039908689180
  N           1.27448375415005     -0.07977227242307      0.41109636712500
  C           2.76332582509231     -0.02406138750602      0.20166358205466
  C           3.09866015404482      0.41197731157394     -1.21215415534513
  C           4.60663213863948      0.48186332227909     -1.42014923440926
  C           5.06026835799126      0.91183642325872     -2.83131499623260
  O           4.17975848023173      1.23305741074357     -3.66752349066917
  O           6.30397084788175      0.90909498175871     -3.02642155179828
  H           0.84361038346557      0.83552026313512      0.26544374715685
  H           0.83147568234588     -0.73444632833473     -0.23631782876908
  H           3.14134687312006     -1.02142320410644      0.42092142716453
  H           3.15085288239180      0.67058030266464      0.94536615156373
  H           2.65102544114797      1.38906065531898     -1.40947387806248
  H           2.65719354046669     -0.29050097482281     -1.92396702318618
  H           5.06350450146958     -0.48949962357927     -1.20817527775247
  H           5.05184408018872      1.18405891867883     -0.70782875469881
  H           1.04264705737230     -0.38154579863925      1.35863491585871
