! B3LYP def2-SVP TightSCF CPCM(water) CHELPG

%maxcore 5000

%pal
nprocs 10
end

* xyz 0 1
C          -0.28049687842096      0.20791933931691     -1.43978550197807
  C          -1.24631081324305      0.95061260493719     -0.48799817774793
  O          -2.43286266225406      1.04821740420368     -0.88418834139283
  O          -0.77258697233184      1.38618587589972      0.59013268398889
  C           1.14902825020148      0.18814740398980     -0.94150483559759
  N           2.04432110256395     -0.52745149533953     -1.91908353806217
  H          -0.33324421346963      0.68764629292901     -2.42100860525963
  H          -0.65155657684896     -0.81314743331920     -1.56803405789209
  H           1.24528226074143     -0.33507775317588      0.00590867652137
  H           1.55473705988836      1.19041027624882     -0.83116555821255
  H           1.76177746192819     -1.50137797903618     -2.04193474455436
  H           2.02139583013576     -0.08415877080298     -2.83914663222709
  H           3.01511615110933     -0.52732576585139     -1.60289136758592
*
