34
 energy: -56.703345428103 gnorm: 0.000613879920 xtb: 6.7.1 (edcfbbe)
H            1.16720438387482        0.40278799565056       -0.81559722006875
C            0.52841157332141       -0.33046592949110       -0.32049249435275
H           -0.60452532752820       -0.50067810811482       -2.06412667845832
H            1.03126916797863       -1.29909596193188       -0.29910211793303
N           -0.74605028784722       -0.45607076397112       -1.05676625386492
H            1.14347775767399        0.24038328084217        1.68293582938812
C            0.23055855751455        0.14559690125368        1.09772028006769
O           -1.36483598668368        1.73433103417606        0.25504880878196
C           -0.48536719360913        1.52113175485383        1.13166040414024
H           -1.28729077400726        0.40446964171768       -0.78180750749663
O           -0.16366306820467        2.31749187925950        2.03166313664533
H           -1.25014135188612       -1.32556678916559       -0.72963819341769
H           -0.42854272664772       -0.56352545262602        1.60261639233709
O           -1.72158976008534       -2.80125201981681       -0.13529203861080
H           -1.85398168056068       -2.64281220825000        0.81488442419336
H           -0.83222788563853       -3.21725610299760       -0.21079088335663
O            0.99402279076897       -5.37077661021242       -2.55538152079561
H            0.47962865405238       -6.17599869876370       -2.44310088205466
H            0.72164937807422       -4.99635120440904       -3.41138980725217
O           -2.02712106610893       -2.17803458912054        2.57077242650717
H           -2.84217614774272       -1.75875129324372        2.86082985709697
H           -1.77619882065177       -2.81273681496203        3.24985551564563
O            2.53538479691834       -4.64880606123616        1.62576334026255
H            2.67039907546487       -4.10037185447326        2.40490842025825
H            3.40193475354113       -4.94732592826543        1.33112886148623
O            0.83164035007970       -3.63581761586882       -0.40563340770891
H            0.94839820699466       -4.21527674577178       -1.18247147821586
H            1.32921603454808       -4.05739143902924        0.31210914215299
O           -3.96494191441140       -3.91236463006038       -1.40434952541456
H           -4.58806450651544       -3.18344200384328       -1.33587933207939
H           -3.14609407321100       -3.60099205162258       -0.97371395397401
O            0.01847892050526       -4.29854216027564       -4.96667316597228
H            0.48522327198990       -3.63521175822090       -5.48369425635927
H           -0.91951410195671       -4.08425269207160       -5.00464212156239
