34
 energy: -56.704594841237 gnorm: 0.002296990779 xtb: 6.7.1 (edcfbbe)
C            0.51273224155555        0.08292452975779        1.26720294310845
C            0.42164605263566        0.60945505611459        2.71388245573299
O            1.19997362946221        0.14087449294610        3.56937978517471
O           -0.45769706463232        1.47170202569755        2.95160249539078
C            0.59252334435524        1.21845054304715        0.25582998375003
N            0.20086144777448        0.73326839814630       -1.08625608173467
H            1.36753129608004       -0.58854538040091        1.20194444378373
H           -0.40531350916913       -0.48572912413529        1.10592549097435
H           -0.09523019096034        2.00976134085912        0.55729531351142
H            1.60461676674516        1.62376305114833        0.23186659689399
H           -0.80587657790733        0.38609318931323       -1.02970168082098
H            0.79936188244511       -0.04583680867532       -1.37048844269241
H            0.25623248940810        1.48521650529083       -1.77662877615764
O            2.43916981734266       -4.38430103215555        2.59498102347764
H            2.81394367523475       -4.59581332239787        1.73278261408067
H            2.61127423212296       -3.43392215171171        2.73106404510600
O           -2.33346743129290       -0.02487641988002       -0.67585971574302
H           -2.53429897589324        0.60674686074851        0.05015901973599
H           -3.03789347322549        0.06951761700477       -1.32379909141299
O           -4.38887678493453        2.14455481921339        3.38022370104949
H           -4.89766382488053        1.41252588105740        3.74271863097626
H           -3.65796752243332        2.30385368387285        4.00493036032811
O           -2.72968538233213       -4.93613273375858        3.20135655674432
H           -2.24359430638404       -4.11110171767684        3.29636530576267
H           -2.07807408214471       -5.64574409751826        3.22223113586789
O           -2.11787370481958        2.26082220368732        5.00114595178329
H           -1.88638221342006        1.77033355036725        5.79560511999722
H           -1.44152620898652        2.03584678224200        4.33311822616342
O           -2.60325114311173        1.82424601863121        1.26215988581118
H           -3.36205149163889        2.00139557104019        1.84387542404508
H           -1.84706171852003        1.71935127562761        1.87309521341868
O            3.08369318044644       -1.67024359906034        2.84723734364928
H            2.39479029059150       -1.04773795753860        3.16972348122571
H            3.86276326052229       -1.50064905082784        3.38440524097519
