37
 energy: -59.864476715853 gnorm: 0.001434047996 xtb: 6.7.1 (edcfbbe)
N            0.26773234435258        0.59720256620116        1.97260386997573
C            0.13077361210822       -0.29392561579949        0.80224047662968
C           -0.26327292548475        0.49923428470488       -0.43902502592382
C           -0.42596910350592       -0.40871837575450       -1.65127435317495
C           -0.98847814155806        0.33157589311069       -2.87700891642813
O           -1.63509949880948        1.37975880801973       -2.71551579086267
O           -0.76576334705737       -0.19944049783403       -4.00453724932762
H            0.95293383580317        1.32928477781659        1.77361968522068
H           -0.62906065641865        1.03874926019373        2.18494108596447
H           -0.63104818862023       -1.04518694948972        1.01078448884023
H            1.08180345905960       -0.79717664226696        0.62843992790889
H            0.49157044693988        1.25194060045288       -0.67685530404858
H           -1.21233650977161        1.01917631341882       -0.29194999139441
H           -1.13661576244386       -1.21083094593042       -1.43494924623071
H            0.51610713909436       -0.86962934503441       -1.94828863218288
H            0.60102949539498        0.05847266729437        2.83173455472845
O           -2.25167942912089       -2.52196699809045        1.46376239289887
H           -3.20022819382801       -2.40765327607738        1.57229711679622
H           -2.05188448094430       -3.44223463275925        1.66013172156372
O            3.44454554246772       -1.80637073987158        3.03380829029221
H            4.29864351549943       -1.37238065847708        3.11134115434726
H            3.27345108014299       -1.91501721348958        2.08052283846078
O           -2.64427659872201       -3.94989512701034        6.38302269353806
H           -2.88316004458729       -4.47762643764464        7.15101531396989
H           -3.39265284561356       -3.37795718971566        6.18594810165771
O            1.23752113906218       -0.65947591744552        4.11716140201724
H            2.05507515655366       -1.09767790636901        3.79926719988668
H            0.73150952843229       -1.32853793874353        4.58570920084315
O            1.27068221157165       -2.00852713723818       -4.24306003537050
H            0.53239111085467       -1.36634218072945       -4.18689074026541
H            1.28555708148323       -2.29808263970229       -5.16003581269119
O            2.98098281567598       -2.01365306117668        0.28028026458049
H            2.64176125079622       -2.85189314011899       -0.04675498102915
H            3.63965458913531       -1.71195029377261       -0.35244522403059
O           -1.99999943749029        1.33324221393782       -5.91074505966293
H           -2.35494134431711        2.03498929481188       -5.35370385930452
H           -1.53513784646505        0.73499418070241       -5.28347455801694
