34
 energy: -56.717552012207 gnorm: 0.000574729511 xtb: 6.7.1 (edcfbbe)
H            0.20212930620356       -1.92015515410248       -0.54498910065576
C           -0.61980764358994       -1.21876921714197       -0.69492866189511
H            0.17822747818159       -0.64890284078985       -2.54229351328633
H           -1.48757591788039       -1.77011364670557       -1.05457264009375
N           -0.21961545473289       -0.20654658152948       -1.68591775319240
H           -1.31098476229497       -1.27172550922251        1.35015810416975
C           -0.94458385511398       -0.54279314687176        0.63072920370145
O            1.05467348430963        0.77533090231648        0.46346738426706
C            0.27909700135515        0.17830931479603        1.24250883171444
H            0.47405440520444        0.39502329168466       -1.19826923438245
O            0.41117658802686        0.14215274485863        2.48889452612632
H           -1.03568854672322        0.37638157265825       -1.97429961157601
H           -1.71474679805003        0.21887706330555        0.48922651739853
O            0.51501391089772       -1.51301006850902       -3.99193125297461
H            1.41231426373886       -1.79621760701552       -4.18738004691117
H            0.00654194709315       -2.32436443653459       -3.78646640868407
O           -0.81661592554166       -1.81981027926463        3.85314603006974
H           -0.31564372092371       -1.10471471079295        3.39732013557657
H           -1.30917412145495       -1.38493251645632        4.55593140265338
O           -2.31915219987372        1.17580106324215       -2.81932818457648
H           -1.90365637406263        1.08963021061190       -3.70433188018469
H           -3.21838976761328        0.85124323249992       -2.91442469421018
O           -0.89726634903583        0.65360476063404       -5.09071360675728
H           -0.43511734895260       -0.16422893724046       -4.83090275328417
H           -0.21639624836616        1.27489510871521       -5.36242144629905
O           -1.12638700357110       -4.55570647923677       -0.55174832928508
H           -0.78167478143358       -5.44006388607120       -0.39673694966704
H           -1.32829888684927       -4.19814125159766        0.32701602687661
O           -0.87523426359718       -3.71420595200916       -3.21218012338585
H           -1.70216644959523       -4.02091592045878       -3.59354830220974
H           -0.90369532331181       -3.95203279145995       -2.27043370520008
O           -1.63203463900860       -3.88443172786336        2.14971580961968
H           -2.26448747084479       -4.37288072775678        2.68579276640867
H           -1.24264853262693       -3.21617687666026        2.73834346010075
