34
 energy: -56.712004278727 gnorm: 0.000168418999 xtb: 6.7.1 (edcfbbe)
C            0.57609687293383       -0.82503893824039        0.46507406705527
C            1.34349388946878       -0.24449111177403        1.67451839885389
O            1.66121774407143       -1.06724214446011        2.57540287560579
O            1.62042326459696        0.96712605535171        1.68711091271452
C           -0.03564749199276        0.24567835851815       -0.41851267310644
N           -0.57527459796053       -0.34936894902370       -1.65578225911573
H            1.30662816836738       -1.41544862531373       -0.09176757549007
H           -0.18230262320517       -1.50268011168052        0.85404937299087
H           -0.84062077371395        0.74819476957865        0.11782500403171
H            0.73004720832046        0.98629080408828       -0.65117773290752
H           -1.26900707539555       -1.09180645432516       -1.41266744896355
H            0.18292596702581       -0.78662057200946       -2.20501879010964
H           -1.05110700821716        0.37224482984044       -2.22574247593587
O           -1.91616975540465        1.62455979321793       -3.18937604288757
H           -2.52948812972983        1.26705818728676       -3.83990931921225
H           -1.38893488935952        2.29926030752783       -3.62797210685741
O           -1.43005459317775       -3.89900082608285        1.04966290865577
H           -1.99148714126565       -4.02719764622120        1.81938693384880
H           -0.51444728313021       -3.85431738560983        1.38286582023084
O           -2.89267336284517        1.79551902959268       -0.51375257046443
H           -3.22228285849002        2.65630059805038       -0.24621046295063
H           -2.62921538440730        1.87035076493846       -1.44710963797072
O           -2.34751547348975       -2.38912767222864       -1.05000201186525
H           -2.01096694220485       -2.90365134151093       -0.29238461350003
H           -2.53868452620778       -3.02859166805692       -1.74329297616796
O            1.05980283389423       -3.64118221784482        2.22113647352572
H            1.29082995939749       -2.68781390864263        2.35171578892109
H            1.37867605178631       -4.09448139448722        3.00662258997963
O           -4.46702954521054       -0.54700215035362       -0.53524541037759
H           -3.95814376598971        0.27485093828967       -0.42186815920274
H           -3.79351957054341       -1.24003872190435       -0.64085337716339
O            1.52632985665998       -1.60274089168891       -3.09780734960319
H            2.33758891968907       -1.20578112217648       -3.42451369416586
H            1.56993105570961       -2.54593558266637       -3.27694045835209
