34
 energy: -56.711744556162 gnorm: 0.001354698502 xtb: 6.7.1 (edcfbbe)
H            0.96889122184225        0.65244414455169       -0.05480024355813
C            0.15921158154757       -0.05993740585953       -0.22309406664890
H           -1.13163094051357        1.17687384866088       -1.29272633633972
H            0.37386590862912       -0.65052683756418       -1.11315973624119
N           -1.10902137192783        0.66779762022173       -0.40920110571734
H            0.92711687003428       -1.66251130044756        0.99284323983792
C            0.06787233134243       -0.98929099838559        0.97663918918336
O            0.50099467160503        0.90268599790730        2.40267610814664
C            0.07065544798268       -0.25650329698174        2.32498323701270
H           -1.26894482131177        1.34846496531748        0.36873161410545
O           -0.42144088534742       -0.89893543868702        3.30572681124186
H           -1.94217053580792        0.02148953213190       -0.36309809259118
H           -0.82893780746772       -1.60714474405526        0.92560662446164
O           -1.12610720977800        0.46845458186157        5.57967074394426
H           -0.78268220305937       -0.01277258145230        4.79699275014552
H           -0.35680086424720        0.67208371445867        6.11840136939257
O            0.30657577097887       -3.53439100316501        3.50783216158965
H            0.03118031911671       -2.59585230090939        3.49293178273831
H           -0.50328213604235       -4.05117299425168        3.57623103382536
O           -3.74641379362580        2.20089515253448       -0.48469669374403
H           -3.22018368604601        2.51132480370748        0.26611836230071
H           -4.42180422245999        2.86339059947765       -0.64633884096574
O           -3.48567043780016       -0.52483725760343        0.09182594638554
H           -3.48080566937017       -0.48071712380997        1.06052019486367
H           -3.89250409459586        0.31093140631931       -0.19905918010807
O           -1.88193202329115        2.26813611216759        1.72509104641127
H           -2.39245302198327        1.57246802503609        2.18616227179134
H           -1.03016608442363        2.30208068156593        2.18011117662004
O           -3.04820678875474        0.02054652603634        2.87086846535519
H           -3.56178265063866        0.08389789787217        3.68176719597104
H           -2.20502324442604       -0.39125872044582        3.12250410989016
O            2.18259811055669       -3.51240734439708        1.43532177240541
H            2.85817644830129       -4.19104977274258        1.53091383244474
H            1.58346381086031       -3.61482448901701        2.19665425586617
