37
 energy: -59.874702184566 gnorm: 0.000190152943 xtb: 6.7.1 (edcfbbe)
N           -0.37861042102336       -1.06602417246172        2.22881020594001
C           -0.65011833137446       -0.99467214279396        0.78026954265879
C            0.24653418658988        0.02870794498165        0.09245256476504
C            0.15909547945888       -0.10607914395967       -1.42393307100303
C            0.90339676102296       -1.33972570671583       -1.99572694456369
O            1.41650309216416       -2.15639846648089       -1.19568289110432
O            0.94901437029078       -1.43492506625060       -3.24037669677756
H            0.61704535134935       -0.91149979639178        2.39268441750623
H           -0.92774212211732       -0.38217536375798        2.78935721696247
H           -1.69648690417078       -0.74905817356787        0.60424000532320
H           -0.44648299227655       -1.96617319530690        0.33193227554632
H            1.28781305086690       -0.14780042491050        0.37473916122188
H           -0.03461258512526        1.04307935114983        0.37776916038128
H           -0.88024121674247       -0.18284053222234       -1.74951061733761
H            0.59423080477178        0.76097193815813       -1.92647926587705
H           -0.59826087747398       -2.04035486270482        2.57899699585454
O            0.99019942682649       -4.09561169586525        0.75670683091654
H            1.08953683851220       -4.92578368086899        0.28437698627882
H            1.21605392437117       -3.40139542182137        0.11365691321094
O           -1.27722450040647       -2.28459452076515        5.32240675165141
H           -1.04403891512512       -2.70374386219362        6.15357075052824
H           -0.93889363404622       -2.85846596529169        4.61189295428614
O           -0.67678216137318       -3.63546381165690        2.96349183979293
H           -1.57732290565186       -3.84502188327584        2.62888268912439
H           -0.05071628278627       -3.94229005467943        2.28788293864000
O           -3.25716169411464       -3.88141914680225        2.23545100905985
H           -3.79504459163031       -4.65066731533066        2.43599211325700
H           -3.56263420271672       -3.16648262293455        2.83994818602806
O           -3.76535980638840       -1.96249886583769        4.08296167081003
H           -3.65549061140253       -1.04875381481853        3.79626816958812
H           -2.98402149832965       -2.14131639910294        4.64049306332666
O           -1.72198011348233        0.25991051155698        4.21211221932468
H           -1.51559552898898       -0.50695373691103        4.77563823398679
H           -1.46226852271418        1.04704985211128        4.69535323774330
O           -3.58772667262439       -0.09652766189425       -0.72537263480892
H           -4.11270584901330        0.70623512017670       -0.64388749593510
H           -4.16390634507368       -0.77282921054711       -1.09292348635320
