25
Coordinates from ORCA-job 04_Aminobutyric-acid_zwitterion E -592.390803390780
  N           1.23840866001876      1.59821718258760      0.42653704618783
  C           0.54422621963461      2.27104202409534     -0.71616480220346
  C           0.21080960734252      1.29922664789194     -1.84419216223435
  C           1.32345688611225      0.30495853425137     -2.23726143007669
  C           2.71320068856429      0.94068917784297     -2.31327497699407
  O           3.12756771795815      1.39380572235462     -3.38838273981418
  O           3.36548616763587      0.98164365348395     -1.20202490765080
  H           1.35748295030239      2.23459767950215      1.21274297317996
  H           0.75075079536350      0.75309341452479      0.76290366934650
  H          -0.35868887245120      2.74117212073170     -0.33230179829555
  H           1.22116032437559      3.05351551843400     -1.05642014827440
  H          -0.05685248655009      1.91194862694902     -2.70731843268858
  H          -0.67885336498080      0.72455121465676     -1.57755286791046
  H           1.35402618030774     -0.50980337414273     -1.51307200678609
  H           1.07150122098486     -0.12354424417411     -3.20695916197165
  H           2.17744529109615      1.30564514806148      0.07937641477197
  O           0.49602656341832     -1.05934338778314      1.23755754325141
  H           0.28676519924308     -1.22570390637831      2.16646539819873
  H          -0.17509377407231     -1.53642398006400      0.73127779520025
  O           3.30262364353033     -1.43277367194515      0.33713304001286
  H           3.38401983011008     -0.62912245615371     -0.21231130618510
  H           2.39007549947176     -1.40774142124666      0.66835414882241
  O           5.65694919443195      2.46449300052772     -1.28736544604711
  H           5.73704760656122      2.81120651266108     -2.18322350282974
  H           4.82983825159058      1.92450026333101     -1.30016233900954
