37
 energy: -59.877277125878 gnorm: 0.000172958656 xtb: 6.7.1 (edcfbbe)
N           -0.32884200870853       -1.39259488458070        1.47187706584786
C            0.40160068477221       -0.17218307127814        1.06401508147686
C           -0.24585844722346        0.48592380561334       -0.15233284051799
C            0.01366814861969       -0.27702696555701       -1.45309950412999
C           -0.90522924200203       -1.47753236561050       -1.71764826022185
O           -0.76053364733031       -2.06431179088591       -2.81918767348804
O           -1.71620634389445       -1.84048870897453       -0.83803558546326
H           -0.93178613347267       -1.24768568137421        2.27983496438698
H           -0.94240036812939       -1.68991881615376        0.67963018832446
H            0.42664892906985        0.53433492272397        1.89244518215329
H            1.42647717596442       -0.44724896931441        0.81213608723794
H            0.16289308948804        1.49046286722849       -0.26147747735361
H           -1.32310012869184        0.57620693033340        0.00141541972422
H            1.03680053658880       -0.65909245103043       -1.47639440617383
H           -0.10015766250944        0.37962815352045       -2.31861143590409
H            0.34149203978116       -2.18256197527023        1.66742051583010
O            0.84569276398139       -4.21410581652562       -2.19125475952467
H            0.85320858766624       -4.77007498142599       -2.97870336005298
H            0.25008982596951       -3.47649344168171       -2.42109155827947
O            0.09267690941555       -5.24749769161517        0.28079381398862
H            0.20510582184698       -6.20214400537343        0.26815758350707
H            0.30710711399787       -4.92438434157477       -0.61559088819908
O            2.63445634624627       -2.56557949089616       -0.76486614970791
H            2.11877132668322       -3.16639830925073       -1.32927631911443
H            3.56099304431216       -2.71309664304423       -0.97531170796849
O            1.54024404332830       -3.33538652222510        1.61895888000464
H            2.03376502496586       -3.02474191305128        0.83224590696960
H            1.03593194113899       -4.10795635746523        1.29901778037993
O           -2.20596989845020       -3.80518035531543        1.14815182192207
H           -2.33835149492468       -3.25770555128037        0.36210295877661
H           -1.47115362866228       -4.39889105228644        0.92104309458785
O           -1.19646471428528       -4.34526285930943       -4.43077526729475
H           -2.10896115559689       -4.63782576015245       -4.34648623747407
H           -1.15389080612068       -3.47205955572446       -4.00807281989789
O            3.11455381838962       -3.78801090208427        3.90663201258380
H            2.45285333131485       -3.82119701264830        4.60370442435556
H            2.62001417642257       -3.62611543640629        3.08149146873940
