34
 energy: -56.711703544939 gnorm: 0.000879993483 xtb: 6.7.1 (edcfbbe)
H            1.10999094614808       -0.90109161256375        0.30152837531478
C            0.12323287036324       -0.49399929578898        0.07896905109927
H            0.23884624178025       -1.38648551438794       -1.83667444468980
H           -0.64283312180570       -1.10231253184538        0.56183046802919
N           -0.07284201159679       -0.49736007298146       -1.38209512314116
H            0.21318074037038        0.96674517601818        1.68282372035381
C            0.05029386275469        0.93630588672555        0.60659042076839
O            1.31750563597442        1.74075627429052       -1.27314692366479
C            1.09193802676661        1.88699817658244       -0.04340132987976
H            0.48561903529722        0.32303193410342       -1.72477666501123
O            1.61798473610297        2.74642624900803        0.68625462134865
H           -1.06055923203454       -0.37478533377594       -1.63355413642664
H           -0.93139390685444        1.36911383317335        0.40212339395266
O           -2.28142910962752       -1.60212256336589       -2.76406514596227
H           -1.50934775121946       -2.13328514908588       -3.01894573371802
H           -2.78989216701857       -1.44279581699433       -3.56215092762190
O           -0.59935458870273       -6.40788874348917        1.23663181632719
H           -1.41049490936478       -6.92059508834931        1.18082038878872
H           -0.52642185165275       -5.91379044796139        0.39630883416506
O           -0.18910572640090       -3.88962466060694        2.31862369494529
H            0.48483289604258       -3.84059474344003        3.00045084659972
H           -0.34434962188755       -4.83798276660460        2.14219129827273
O           -0.51798381127221       -4.30190745786107       -0.56078345670963
H           -1.47247435524522       -4.04349754448592       -0.63932058111359
H           -0.21243236328975       -3.85020072561814        0.23895733125108
O           -2.24053980405706       -2.12576324175530        1.71178467363318
H           -2.77255609354888       -1.91119773678585        2.48068852498288
H           -1.56319494958820       -2.76131895920591        2.00933528008725
O           -2.98696103369170       -3.31119263199269       -0.67527134222990
H           -2.89409671016067       -2.81637238249329        0.16007180245998
H           -2.88937732407951       -2.65079986783004       -1.38617614629757
O            0.29978104528504       -2.87733776255225       -2.67159437960717
H            0.06437530984160       -3.50574315699887       -1.94666964505652
H            1.09783109636292       -3.21034272106570       -3.08646856126100
