34
 energy: -56.698101750452 gnorm: 0.000882852075 xtb: 6.7.1 (edcfbbe)
C            0.63988194135785       -0.82714429056888        0.63623465636546
C            1.28616262590851       -0.30591928848639        1.94887344301417
O            2.00613376966776       -1.11832489750289        2.56746946370490
O            1.06800635753426        0.87772966245615        2.29144615687062
C           -0.33389445783787        0.15977042350951        0.01930631328452
N           -0.73334342114222       -0.25846434945072       -1.34207964659180
H            1.48327809533807       -1.02441265769920       -0.02978820229748
H            0.16663148678774       -1.77917590132216        0.87497978787631
H           -1.22096678971184        0.24468658875714        0.64573017608031
H            0.14213661142094        1.13972529942801       -0.01788443376814
H           -1.31911713461531       -1.11637337204493       -1.30964746118332
H            0.10051699530065       -0.45271418536078       -1.89952405537769
H           -1.27356302093859        0.50413498692332       -1.81455094838297
O           -1.11839853406340       -3.70728619204993        0.60229656233981
H           -0.83901192461701       -4.58408829844122        0.32433384988212
H           -1.63501522970265       -3.33167367526842       -0.13493266070677
O           -3.10169680638837       -1.00817093257958        3.94153783396193
H           -2.70356649252097       -1.86778046033008        3.69901022331297
H           -2.65818310267391       -0.72149412469653        4.74454803402031
O           -3.11189461943584        0.80998259694817        1.86772096725034
H           -3.08786549119774        0.16369619279095        2.59902621239792
H           -4.02650165268255        1.10519367325485        1.81377632997925
O           -2.42324856717039       -2.51122985591222       -1.57156782726967
H           -2.36963218156642       -2.93274790673174       -2.43642528918049
H           -3.34913231367479       -2.30108898130008       -1.41168928093639
O           -1.98403656978393        1.78765390958798       -2.69356516390455
H           -2.90284796977551        2.01583200846977       -2.52515646222102
H           -1.47889181143204        2.60484345537937       -2.67504755820120
O           -1.77494656641517       -3.34151335679719        3.26945176655267
H           -0.91873920561223       -3.45281606485062        3.69158687779667
H           -1.61231066092522       -3.45323369023277        2.31255865593640
O           -1.00450178129490        2.76236314767303        1.92834202341071
H           -0.23653550670584        2.20503679341843        2.13771802397568
H           -1.76578207144110        2.15631174293535        1.96092363206164
