256
 energy: -431.752072599154 gnorm: 0.000427865710 xtb: 6.7.1 (edcfbbe)
N           -1.18931235394074        0.54539779142127        2.07704581179758
C            0.17939258977561        0.33230262333588        1.58508905596914
C            0.31212648299780        0.77386912163715        0.13670746671751
C           -0.38779331138117       -0.16886571474976       -0.85249961690823
C            0.47011258256300       -1.37151901584965       -1.16542139237516
O            1.18933095220714       -1.34298949116274       -2.20474008391438
O            0.47046959569196       -2.35878373084427       -0.38640667137679
H           -1.25845729936606        0.21563673089502        3.05971894817547
H           -1.44748688616388        1.54541874012194        2.10207940733665
H            0.85632449946157        0.91354898864055        2.20371014996635
H            0.44228607669410       -0.71790826642741        1.69036086150828
H            1.36411613783304        0.85378091006786       -0.13286020391487
H           -0.13202437477359        1.75867197257451        0.03278250169920
H           -1.33781575611146       -0.50984814135867       -0.45252436010890
H           -0.56732332605739        0.34673362666562       -1.78932055757395
H           -1.86934352707883        0.03579409170693        1.50135604052696
O           -1.49688186657374       -5.08644259474849       -0.41182673378651
H           -2.33029589804404       -4.58521192424494       -0.29508025770467
H           -1.38759887683786       -5.17201080184544       -1.37993409180750
O            1.94594995611568        5.26555000739161        3.47535170760425
H            2.71190853157543        5.44672080886450        2.91106982932432
H            1.35842353976015        4.73190440872376        2.88285967593720
O            3.60954053585090       -3.30447370208583        3.51338709330883
H            2.78527396833433       -3.18175824384898        2.97858423651092
H            3.60728719260251       -4.21840259645414        3.80168998536299
O            1.85733122969961        4.55747415397634       -0.49068587601545
H            2.27959282349129        4.98372531736636       -1.26189476764288
H            1.15516460433067        5.16477102504865       -0.20577267866204
O            2.15018120462486        0.88396125290891        6.52148657116516
H            2.31013844951718        0.27670785697388        5.76903359579859
H            2.48897627967776        1.74500516927834        6.23624071406195
O            3.13493169313130       -0.15896158729244        1.90621656819347
H            2.97787032558799        0.76898696923186        1.60819359271669
H            3.25962010507353       -0.71377982321186        1.12011115640694
O           -3.81909795945230        1.98698642402839        5.05104930920541
H           -3.34093113926242        2.43605980537756        5.77873881718037
H           -3.80526898085271        1.03989730059505        5.26173173268870
O            6.32929475611580        1.71986474561422        0.39685264330338
H            5.48605682665293        1.88887244998963       -0.09943006167365
H            6.93754462695928        1.35601097936513       -0.26287261468912
O           -3.66696406850463       -0.43612673855557       -2.93195310988516
H           -4.34477276478310       -1.09932713727781       -2.72442406411386
H           -3.76348145947421       -0.23513133003333       -3.87960054106265
O            1.14561273409192       -6.92935833772657       -2.99590612192620
H            0.28020957284257       -6.51965996556325       -3.17360390690509
H            1.22268205198346       -6.91273745818846       -2.01880773975150
O            1.27857645623298       -3.04265411497826        2.19723978595889
H            0.76759260444048       -3.86971762005943        2.23160778611331
H            1.24330208873420       -2.77540744047750        1.26786910202741
O           -2.65083317658125        3.03848306495237       -5.35809416851154
H           -3.60652151035493        2.97840532134111       -5.17203733114199
H           -2.51010508661645        2.67293190617105       -6.24048790257359
O            0.54576561420326       -1.42206231853423       -7.10090180317467
H            1.21097727325960       -1.98208397615256       -6.65527600407012
H            0.79257256385811       -0.50136133739061       -6.91032256611920
O            3.47494526704087        0.25460815859430       -6.20374410740211
H            3.44439462036517       -0.22137100411540       -5.34345617367058
H            3.65459140908505       -0.43314981518776       -6.86930109793101
O           -0.41562131952130        6.16034612092808       -0.21349061015736
H           -0.94336443206418        5.32338339432461       -0.13301567061107
H           -0.84679808338894        6.81044906265600        0.34069121807267
O           -5.30547776223475        2.13084613401178       -2.24434818262542
H           -5.49405227527813        2.93272549458683       -1.75008703398636
H           -4.31928457759180        1.98908170703111       -2.10993230910541
O            1.35404463035648        1.11396237287194       -3.41616794077163
H            1.29225974926341        0.95870586248889       -4.37837329671706
H            1.33023438549359        0.23848421950667       -2.98257080585908
O           -2.26229136656242        2.91324744659211        3.02284534899110
H           -2.79493028078650        2.48359567660170        3.72143598676914
H           -1.85954903018587        3.67682037382975        3.45510298572215
O           -1.18193627196602       -0.08565829619910        4.75105085053020
H           -0.65686074240529       -0.91364177714844        4.83267610077177
H           -2.11987649756392       -0.34053152026519        4.89628429045307
O           -3.60690210142794       -3.53024205993409        5.58174835247442
H           -2.83709282985849       -3.57822118590821        4.97283327686417
H           -3.32460034920770       -3.91754814252885        6.41127789485728
O           -5.78487065422174        1.69607724346671        3.05241968653209
H           -5.24674362276727        1.93247120912947        3.82712412888709
H           -5.55140100928891        0.76747576124318        2.87144182467254
O           -1.94900041418443       -2.36487858754706       -2.35832344132894
H           -2.35467902263318       -2.68456985398313       -1.54528347021875
H           -2.44641545607503       -1.53783559203220       -2.58235195918292
O           -0.88943859981989        4.59700190440693       -3.95335790430293
H           -1.58672372779203        4.09702825496051       -4.40995073785908
H           -0.55438214121326        4.00458388555077       -3.21952301924795
O            6.19622897751534        4.11545967696335        1.79011860087283
H            5.35906334432613        4.51815301488692        1.47614821441696
H            6.35136103665854        3.34426913386777        1.21170369878030
O            2.85936141704905        5.74434639224396       -2.72347949395329
H            2.01106803942319        6.22504117542467       -2.85720514697077
H            2.81856160147015        4.94342066916378       -3.28314713691164
O           -1.57734256794524        3.78872165682097        0.11422582066140
H           -1.30715678114760        3.35232428262335       -0.71459313111290
H           -2.53181920248873        3.67465395618859        0.17987059777674
O           -5.89538453441046       -0.18184305099249       -0.80911658348302
H           -5.82796743725459        0.57233662460816       -1.42586979405590
H           -5.94144770331404       -0.98255596560731       -1.34360740483879
O            4.72451471888149        2.56846544368788        3.43099928712262
H            5.35024986089353        3.19858440057057        3.02201107887404
H            5.13484106349763        1.68894845118287        3.33131088283726
O           -3.70496940975934       -0.79062986456908        5.06902793885550
H           -4.02240700355669       -0.78054293307088        4.13212324964297
H           -3.81280106186865       -1.70423501312379        5.37530202149656
O            1.14667493783157       -6.30961677822006       -0.30959574515498
H            0.25196639949369       -5.94484918982384       -0.39311418977794
H            1.73850011708306       -5.53300795968865       -0.42027385812078
O           -3.41745876232596       -2.39276519123502       -6.26247905927232
H           -4.04346309298559       -1.66085965108443       -6.15081913271288
H           -2.61042069057050       -2.05752268962483       -5.78084612948104
O           -1.94815157490389       -1.40560074298033       -8.41326131599772
H           -1.04343234682176       -1.62985998236728       -8.14040173059492
H           -2.53106784726995       -1.89807122456193       -7.80041280242381
O           -4.10998161966845        0.17477752286518       -5.58072330404959
H           -3.30418171394167        0.47735538438110       -6.04589904473654
H           -4.65755922696764        0.96464997684703       -5.45338126847777
O           -3.30143476012723        4.64056674921096       -2.24061363040423
H           -3.06570195725364        3.70823204328956       -2.06771931816804
H           -2.57781843051307        4.97157812497746       -2.78645872503626
O            4.88867153133098       -0.10203639993486       -1.97424214487784
H            4.60321888234452       -0.72248716809822       -1.26761186039272
H            4.53270202422281        0.76942428540044       -1.70740225904915
O           -2.13133739733881        3.13805107888590        6.83996340544166
H           -1.62466020892979        3.69899466353244        6.22040215494087
H           -1.53228772125757        2.39693682845157        7.06694726509591
O            2.94752764531554       -4.91098337077221       -3.43149312174987
H            2.35860412138672       -5.69340509067198       -3.39091785775163
H            2.82872226300826       -4.52338382813181       -4.30885510742096
O            5.67941605640310        0.14696444879532        2.54474050711171
H            4.71045141580440        0.00929159709688        2.34147842216547
H            6.01457873004097        0.64919670232980        1.77508766598113
O           -5.16940395025411       -2.65033591558565       -2.16683839210542
H           -4.78948322516308       -3.22235503879380       -2.85917648497253
H           -4.68594762357986       -2.90940910375089       -1.35552903276637
O           -1.43046851611065        1.03191206130384       -3.98706806022802
H           -1.84852673429847        1.72536815632279       -4.53439997832678
H           -0.50656493145732        1.29883573267133       -3.86468035546185
O           -5.30409184936550        2.58100907009874       -4.85811306520257
H           -5.33304985815973        2.39751086039476       -3.88117270436566
H           -6.06805891043069        3.12218346752845       -5.06067658409322
O            2.91402927159325        3.34066654833105       -4.01571177291641
H            3.71798828669070        3.05564475487601       -4.48074389321631
H            2.54743567857516        2.54088778848685       -3.59428970894548
O            3.75573143858519        5.31983666258899        1.27364064027315
H            4.08705356316046        6.04926407066822        0.74755398841855
H            3.10266442113228        4.85972323223476        0.68677261697961
O            3.99261690958825       -1.82889921580903       -0.08695974392300
H            4.68950544047880       -2.13289374289207        0.53878310358247
H            3.53764974457763       -2.63961571724566       -0.38172344539740
O            0.93709975223069        1.14487121728580       -6.12711260784014
H            0.85752359522277        2.12877783770298       -6.12999301428887
H            1.88873706521767        0.97109531763792       -6.27619824311182
O           -3.44498745302341       -3.93228898212287       -3.93298287209642
H           -2.82172864151974       -3.32687686818703       -3.44515106393022
H           -3.50674594246228       -3.55602779437575       -4.82780188421152
O            3.35861647072442       -1.17377658007948       -3.90767909061469
H            4.06079302476011       -0.82366724222683       -3.32166450687067
H            2.59967027229958       -1.29935340053411       -3.31230114544984
O           -2.72632186844662        1.95373222031169       -1.76786717031465
H           -2.81370344596942        1.28225419117183       -1.06378903095731
H           -2.34614136501986        1.48865915001069       -2.53603662039070
O           -0.49408857820199        0.92383667589956        7.11962644923704
H           -0.82674935823900        0.58569620502678        6.24697271511889
H            0.46320631262395        1.07256378075980        6.96404951468372
O           -4.38697296906057       -3.55923586467773        2.69426537406517
H           -4.85216828711498       -3.87206836760720        3.47334240501722
H           -3.45498454226023       -3.48687941505456        2.96521136787779
O            5.08921482320095        4.92831577244872       -1.35330217071374
H            5.89544352278632        5.05453941434920       -1.85436472575063
H            4.37486717508345        5.34852797044478       -1.86411473223612
O           -1.64718920799315       -3.47542593193257        3.66482946308105
H           -1.25838025492014       -4.26962488206487        3.26810826609871
H           -0.91022284650241       -3.04317351551134        4.14572152568366
O            0.95329940704525        3.78702007134772       -5.81121145702460
H            1.73001716861526        3.71515420932438       -5.21148265046540
H            0.25693541856111        4.17273755803196       -5.23895686337035
O           -3.48575913027798        0.34432365969131        0.35437177242606
H           -4.28649288666671        0.04326817941565       -0.11177050689293
H           -3.71495016847188        1.25834897256094        0.66050209614545
O            2.30843532094551       -3.01074208099278       -5.63882022677621
H            1.51694102946325       -3.20135552711452       -5.07444176698346
H            2.83830393641999       -2.41087149025413       -5.07920840028137
O            0.09548212337411        3.12246101631157       -2.00273925923154
H            0.75345448826063        3.59611810222401       -1.45180213067464
H            0.58790056984494        2.39717013498723       -2.41601226709457
O            0.51973199744184        3.63876806404739        1.90460948652065
H            0.29276363184047        3.01990460956716        2.62345560449718
H           -0.26473832471571        3.70665049856049        1.33449280925969
O           -0.70257262972030        4.40035576984035        4.82471909742530
H           -0.24715216171058        3.53987151926595        4.60710966259526
H           -0.02005697011919        5.07082424840072        4.75146378164584
O            0.44198397746830        2.11330505236467        4.12776464460714
H            1.30004537205825        2.24814830621018        4.56048427008035
H            0.00576824484447        1.33628927742750        4.50536336780138
O            7.55432463287479        0.34942770665074       -1.70625032062217
H            6.61886544216981        0.14011407302611       -1.93358448610374
H            8.02023368473414       -0.48913428547778       -1.68576469803652
O           -1.14882926788137       -5.33055951095830       -3.10155199664195
H           -0.60086255642017       -4.55098910002854       -3.35742619413200
H           -2.01940607560275       -5.15250974765911       -3.49533845830902
O            2.50930403702933       -0.88350038201611        4.41987877485886
H            3.15157596386577       -1.60283346450301        4.43332677597409
H            2.57789053705823       -0.53444132197169        3.50676914266905
O            0.36800388966178        6.75742197797828       -2.78407643021938
H            0.07152141457309        6.60290274977059       -1.86241555441470
H           -0.12559552595501        6.10523994026563       -3.31080110971980
O            0.51025662033431       -1.55397771698428        7.73455830536704
H            1.41440671842541       -1.26409742714233        7.88949564953290
H           -0.00804380701823       -0.72002809270794        7.68214035722855
O            3.61084617476876       -1.92349688924846       -7.90106269869704
H            3.27370189007201       -2.54653841308634       -7.23682055731448
H            3.01973870957407       -1.98865830394954       -8.65677186353330
O            4.09850293969820        2.34092560645431       -0.96714441852461
H            3.53354412211088        2.43355853619423       -0.16005286843320
H            4.39442741675245        3.24466150160103       -1.17032375712573
O           -0.33722764185593       -5.29994619143045        2.07725277180668
H           -0.78490558210351       -5.15726085508969        1.22070093394911
H            0.16201966523787       -6.11303511687031        1.96887612327194
O            2.73761634838066        3.22490021664097        5.11670435231421
H            2.44701550475089        4.04975699564518        4.67048670820505
H            3.52471224194193        2.95519770826762        4.60689974860289
O           -1.78105497942100       -2.10134515292417        1.26087722766356
H           -1.67067626126010       -2.53229735675710        2.12771149848548
H           -0.98487760247912       -2.30776614071802        0.74138386881807
O           -1.28067099924549       -1.42490680914492       -5.07347753011845
H           -0.68086497801642       -1.31714225902576       -5.83728452474203
H           -1.39196215810811       -0.53408847544219       -4.66226289156479
O           -1.89075612714953        0.97231047288831       -7.05797024975997
H           -1.94004215509873        0.22916429395827       -7.69018101424610
H           -0.98295931000638        0.96781043084663       -6.71625785796578
O            0.29843545736899       -3.21749848146122       -3.92349002285042
H           -0.40469596759497       -2.62877739081883       -4.29595473105048
H            0.67253948268127       -2.67878152638147       -3.19914984112810
O           -4.55671140941056       -0.78750322276146        2.55597903559505
H           -4.05127844172608       -0.45420961123609        1.77692696354973
H           -4.65801562097178       -1.74201576695160        2.42127595885286
O           -4.15243691405620        2.80158684218408        1.15587509084810
H           -4.92108432348390        2.54954568364844        1.69696823265340
H           -3.44134289208289        2.94946941478569        1.82588572571944
O            4.97392524231012        2.44735588054964       -5.60010341599700
H            5.27705335478520        2.87879323628026       -6.40131952897697
H            4.52716346610882        1.62052092162201       -5.87743387203876
O           -3.63853905351182       -3.41379920176548        0.00614035265571
H           -2.99019284276721       -2.80136978363016        0.47148011865317
H           -4.19991774699932       -3.72305890971182        0.72723168193052
O            2.49854849506618       -4.00632048063974       -0.87888197271427
H            2.67173216478408       -4.22129735290717       -1.81425938667781
H            1.68571393472730       -3.43699476156951       -0.84977079287142
O            0.30328000535776       -2.25114879616059        5.09294077997372
H            0.38852173640253       -2.18409684165335        6.06228490150443
H            1.11408409496136       -1.82865326758437        4.72641728331733
O            5.69159829761861       -2.50388451201909        1.89639275242927
H            5.88354310260348       -1.59371405445991        2.20969430482688
H            5.00485601384246       -2.83076594588118        2.51304983005720
O            2.84759872894489        2.41317502912590        1.36524868863765
H            3.44453885612166        2.68043497836242        2.08531754196208
H            2.01532650038466        2.92799719968410        1.46843754939761
