37
 energy: -59.871624840637 gnorm: 0.002551431034 xtb: 6.7.1 (edcfbbe)
N           -0.87805038911816       -0.82597034189330        0.74323060966983
C           -0.33521660620252        0.44894573015300        0.22684617590779
C           -0.27331094422609        0.40733970715777       -1.29501712184513
C            0.91198923568708       -0.38640986164404       -1.85843168898271
C            0.76674920356345       -1.91354807081847       -1.87239314379462
O            1.07587948633792       -2.51477848631910       -2.93061198817514
O            0.38279290825560       -2.50850327195114       -0.83827608197492
H           -0.77010098197378       -0.91547435356456        1.75509442654781
H           -1.86337168213641       -0.91818219278748        0.48466584571760
H           -0.97528855221620        1.27035665633258        0.54723212286235
H            0.66455081273090        0.59880129138486        0.63549393162096
H           -0.19124775135068        1.42571519192685       -1.67242575683398
H           -1.20240668486292       -0.00979252205685       -1.68335219542587
H            1.81839856713617       -0.17118591955792       -1.28442712577255
H            1.09936082370384       -0.08105264592014       -2.88830426013012
H           -0.35234996439659       -1.60932809887905        0.23680558420430
O           -3.58830357378648        3.54402018128404       -2.79119983275713
H           -2.66786783230191        3.32266344170693       -3.05475728517573
H           -3.53182208850215        3.92173433488184       -1.90967798107419
O           -4.64990446733230        1.11076354002300       -3.46670442633862
H           -4.38806111792800        2.00465597047052       -3.16079040679778
H           -4.32087552858966        1.05078170118466       -4.37033770137688
O           -1.70509251815194        0.33605264609527       -4.63434856201869
H           -0.92620132197325       -0.17003570561212       -4.91925380511081
H           -2.08523148770983       -0.16583240297662       -3.88869807469660
O           -3.08301485882348       -0.87991152414100       -2.50763545482394
H           -3.72858519685435       -0.16265752007758       -2.70075422975099
H           -3.52532752188891       -1.70091010840284       -2.73852365488160
O           -1.08891094704168        2.75984865745446       -3.57665920503163
H           -0.64723001864153        3.25907903140206       -4.26969078105721
H           -1.30900885187384        1.88607452833771       -3.97138724059549
O            0.51389726586725       -1.24712965515642       -5.27491946071907
H            0.76375476331416       -1.73527957404873       -4.46199424778898
H            0.54373623629064       -1.89118122469154       -5.98881244776476
O            0.73860889443148       -5.23583914943584       -2.55394743982443
H            0.89049959528959       -4.28658728662204       -2.74490156282267
H            0.41850809525315       -5.26233169300377       -1.64552953304077
