34
 energy: -56.712570861519 gnorm: 0.000457930723 xtb: 6.7.1 (edcfbbe)
C            0.88231111347257       -0.83422907442996        0.81158420195689
C            0.90601077081388        0.18835338082686        1.96617248175579
O           -0.15011143583317        0.30879239708472        2.65064334805536
O            1.94569333028609        0.83563446673213        2.16666628685028
C           -0.01199228847051       -0.35417444117966       -0.32512767926521
N           -0.06879031340825       -1.36539097916109       -1.39745069746764
H            1.90825676673037       -0.96128265125709        0.46648540199164
H            0.50656220817748       -1.77769024398821        1.20939431930339
H           -1.01829490146856       -0.17342037213722        0.05375105800423
H            0.38179456553874        0.57896746259881       -0.73172461365826
H           -0.54172908358193       -2.23677864159081       -1.06184762060384
H            0.89159338717212       -1.61468666762390       -1.69508737835391
H           -0.59092107590665       -1.00038446601371       -2.21644140529144
O           -0.48061579167248       -3.88877606344087        2.04228823352536
H           -0.04186990941181       -4.52352272770189        2.61402707235954
H           -0.87129512641526       -3.20772030055312        2.62623804984447
O           -1.51000220684350       -1.86135236243379        3.55439060941921
H           -0.96862254948080       -1.08414239984613        3.30307728354456
H           -2.42196134210986       -1.58429347709425        3.41174388962322
O            0.99801474406615        2.55568314046256       -1.77977944666692
H            1.92779520459393        2.79986372505891       -1.79000723145282
H            0.49610815341289        3.35358177035306       -1.59106571876728
O           -1.35494865077514       -3.65201072306345       -0.56255939776051
H           -2.31303226758207       -3.62432189518653       -0.48409063860051
H           -1.01090774254616       -3.82576425514369        0.33039301558122
O            2.52294955987483       -2.12503527103386       -2.20255206078431
H            2.69044507308060       -3.06632162557379       -2.30953543553909
H            2.97324082472554       -1.66190644411432       -2.91470752392448
O           -1.58811169461329       -0.50828899730224       -3.58826154767714
H           -2.34272955921212        0.06349712015770       -3.42414096138904
H           -1.86530355199432       -1.18818840313382       -4.21034741265850
O           -2.66594050755593        0.64134746392823        1.61582997585126
H           -2.97602485680406        1.52304633276078        1.83824017332980
H           -1.77445884614323        0.56463422301079        2.00828836887410
