37
 energy: -59.871688189800 gnorm: 0.030197450996 xtb: 6.7.1 (edcfbbe)
N            0.69740839849683        0.84370243208033        2.55477942662261
C            0.30903493837438       -0.22942110040824        1.61799028033587
C           -0.35464469567678        0.36825682583624        0.38362758208369
C           -0.52949242511447       -0.65485512949630       -0.73182712269896
C           -1.00473930735026       -0.02327112196325       -2.06288239123477
O           -0.48902242521204        1.06627995730953       -2.41356709428788
O           -1.85775294349692       -0.65137715687980       -2.72046728866050
H            1.36848032187833        1.49546695517095        2.09258641822742
H           -0.14365666685464        1.40156134360197        2.81080051667720
H           -0.39081824360536       -0.90002871456687        2.11473124985991
H            1.19449624364473       -0.79026138898250        1.32170605332199
H            0.25586657274855        1.18140880799026       -0.00452392954245
H           -1.33423402418023        0.76991896432645        0.63849120964079
H           -1.24771308782595       -1.43398628540021       -0.47092304876886
H            0.42587487854436       -1.13367384065826       -0.96202145320793
H            1.10023171673195        0.45020238266752        3.41576337925764
O           -1.93537577977732       -0.25193056243529        3.86959357721540
H           -2.04536791387958        0.69704198080474        3.68870993219680
H           -2.79443733430424       -0.59253502905119        4.17756862668611
O            1.50480119148502        2.69054742884707       -1.53059174814832
H            0.80991288836742        2.08364640530294       -1.86343357663223
H            1.51564465779685        3.43417526274031       -2.13942848825291
O           -1.49833467441237        2.49211110397770        3.18693130986393
H           -1.81693778694216        2.98755372810482        2.43410951181640
H           -1.25085048930973        3.12768625769629        3.86675065353579
O            0.67710570072707        0.87816362630395        7.43453906581161
H            0.61059590040363        0.40126495833156        6.58681099810655
H            1.55981165963085        0.76734669850786        7.77031395328129
O            1.51232182839984        2.88309463002242       -7.14110895918605
H            0.60759093425656        3.22455690124250       -7.10522632165506
H            1.54049488600402        2.13937055466049       -6.54355950633152
O            0.48788128748987       -0.55802778445126        5.07337572041428
H           -0.39209247489090       -0.42130052240720        4.65369086706771
H            0.47357787473337       -1.47035785514554        5.40505105689626
O            2.26246628855854        2.66659029410597        1.16443633039187
H            3.21821358670519        2.71397799806552        1.14986752497726
H            1.96978851784052        2.70485899415968        0.23731468448500
