49
 energy: -80.251333026963 gnorm: 0.000372065065 xtb: 6.7.1 (edcfbbe)
N           -1.30149912801927        0.45863026306514        0.38714512225583
C           -2.62703771832915        1.03928754417656        0.10907114014908
C           -3.34719340814913        0.25733181616463       -0.98497441983725
C           -2.68546174048135        0.43293232693433       -2.34802188405398
C           -2.99839473693801       -0.66330393018909       -3.36067525510104
O           -2.31743957536304       -0.64904214110790       -4.42486216373969
O           -3.86132907065704       -1.53715782909669       -3.11762533025272
H           -0.90319247616288        0.86564998556789        1.25150889608700
H           -1.36936136408389       -0.58639793507173        0.49897995535991
H           -3.22204464636034        0.99954511764332        1.02108254619525
H           -2.51238282042123        2.08187143280366       -0.18916272068461
H           -4.38813566493914        0.57596798981074       -1.04334659042578
H           -3.35349215261579       -0.79945681652030       -0.71968077054994
H           -1.60008462379978        0.44996476060300       -2.25677612738284
H           -2.98424424703986        1.37360327067567       -2.81838226347945
H           -0.63925437319206        0.61940475924255       -0.39281833232569
O           -6.37082859796056       -1.61049704692938       -4.44289555596083
H           -5.50775835194457       -1.59822281366378       -3.99959037481388
H           -6.79586709489578       -2.43213719878618       -4.17379202922881
O           -1.24267174264658       -2.26204609800145        0.34274639451556
H           -0.59044244878596       -2.34970187141933       -0.37666061891926
H           -2.04334359076804       -2.70856382197258        0.01617338296893
O           -2.31238087346426        1.89595061527153       -5.72197238451637
H           -2.44537764102041        0.97572465772625       -5.44712061268934
H           -1.35508861009498        2.02427765243062       -5.71444326027328
O           -0.31354237878306        1.59619095584956        2.74025002908509
H            0.34926619544387        2.29125905573807        2.77922361335426
H           -0.22477936938713        1.05781346838652        3.53131584501296
O           -2.91630901196684       -4.19403381149154       -3.71999622525334
H           -2.01068620998161       -4.04574038798950       -4.02890074760260
H           -3.32768422508204       -3.31437086257891       -3.72779564361068
O            0.52810964388847       -2.28637038871136       -1.81749687420479
H            1.29741431014245       -2.86196435560749       -1.78072810504699
H            0.09121963148655       -2.47574185398912       -2.67735804203300
O            0.67439340293335        0.42040777099838       -1.65030909676656
H            0.66506526071897       -0.56100217833143       -1.69239158620877
H            1.56036344097938        0.67080912476289       -1.37090364104688
O           -0.51329314163734       -2.72771380732404       -4.27444965095035
H           -1.18439402538070       -2.04040227234267       -4.43961351648578
H            0.25495341767155       -2.45649351073176       -4.82123435022912
O           -3.41665959581180       -3.34502450070327       -1.00134856659843
H           -3.70613126732320       -2.67472440827835       -1.64355178134388
H           -3.25561869353588       -4.13024781523648       -1.54095362151039
O            0.17520566366669        0.59797416955091       -4.39861314579527
H            0.40189837941701        0.67612126242895       -3.45134948031603
H           -0.70847211950574        0.18286600093265       -4.41472451596412
H            1.48408478018740       -1.30795669447385       -6.54604172927017
H            1.14067270368259       -0.61413166159737       -5.19801517793026
O            1.49789074739760       -1.44195551876842       -5.59512414055165
