37
 energy: -59.878567400794 gnorm: 0.000292358686 xtb: 6.7.1 (edcfbbe)
N           -0.69138931505159       -0.97637059586770        1.57000576015796
C            0.51977401247224       -0.41174554355307        0.94673764799698
C            0.17258426023999        0.58964997212472       -0.15289328851303
C           -0.17485575667574       -0.08736956336623       -1.48359393718467
C            1.10848791871407       -0.57174128731961       -2.18013381497989
O            1.87607565548792        0.27775561411771       -2.66369928328283
O            1.32728447707073       -1.81812160390098       -2.20328833046713
H           -0.42532452984945       -1.71829325393327        2.27299612560209
H           -1.22129864094602       -0.24286881144387        2.04179279368408
H            1.11168084547942        0.08026446570699        1.71884642058774
H            1.11418635378231       -1.22192586195401        0.52488069036332
H            1.02597389847638        1.24726865381613       -0.33371259249935
H           -0.66626074316263        1.21114440219249        0.16426405201402
H           -0.85086421260407       -0.92926047355650       -1.34190226546623
H           -0.63749471575106        0.63891405647643       -2.15431371595187
H           -1.31740975718050       -1.41670613055590        0.85929171744199
O           -2.46758648571025       -2.14897759113701       -0.16406158188256
H           -2.23440004081444       -3.03482029599883       -0.49687221638371
H           -3.42823131464458       -2.16010231279531       -0.08841057237469
O           -4.76880465534974       -3.77468541741145       -1.07711303649856
H           -3.93100944549280       -4.25455564338289       -1.17335690198453
H           -5.14250949668990       -3.71079830245596       -1.95998919648841
O            0.05607351416624       -2.90793156018973        3.30540518473419
H            0.80266664129116       -3.36421668416944        2.86564330690542
H           -0.58903744030498       -3.58746245330896        3.52141090471269
O            2.12383107748586       -4.14023261010630        2.02321180583950
H            2.34547262530716       -3.70201792299630        1.18363086924380
H            2.95211878817959       -4.23420220629249        2.50237269858004
O           -0.19816893589322       -3.88816372296902       -3.06369285067202
H            0.43162350684011       -4.44371738536067       -3.53235780555197
H            0.30922225470758       -3.11148800169143       -2.75242048076663
O           -2.03616844741736       -4.67896251684937       -1.20021300795926
H           -1.43828464166165       -4.42369805619820       -1.92914162071033
H           -1.57466298798877       -5.35805939222880       -0.69802543892212
O            2.95906134104889       -2.74941689134843       -0.24783091148720
H            3.86319561759937       -2.63360454831511       -0.55259075710261
H            2.38683377482326       -2.47195952375695       -0.98957737074158
