34
 energy: -56.703613928856 gnorm: 0.004905962999 xtb: 6.7.1 (edcfbbe)
C            0.16173658315689       -0.75462740991010        0.47878426578454
C            0.74746166701630       -0.79595993656169        1.90848788333966
O            0.01824966017932       -1.25542989676902        2.81651138183714
O            1.89826569412543       -0.33615858160994        2.07174325508676
C           -0.32547818249519        0.65911740195132        0.19267513466046
N           -0.90753326187882        0.75734450803178       -1.16013105917679
H            0.95234492271427       -1.03008678513781       -0.21897665382082
H           -0.65853914182420       -1.47010376043105        0.42924153968977
H           -1.07250392488967        0.94336361827904        0.93575933748740
H            0.52103951604151        1.34200275259530        0.27190487348244
H           -1.81962459568791        0.26081234232803       -1.20002828320181
H           -0.26462043137360        0.31949973563059       -1.84505078231412
H           -1.05433964879002        1.76142871611331       -1.40972663872729
O            2.21963108034409        1.36882788444934        4.25105269975196
H            2.20092684495345        0.71675543962008        3.52484010854999
H            1.30015403035097        1.45261986913543        4.54324801448442
O           -0.44889813637011        1.69927936070605        5.39506713912725
H           -0.57068590122370        2.56084003521788        5.80889467522120
H           -0.45976252978972        1.04472830643048        6.10293746216536
O           -1.99231749881445        0.58584756963989        3.22369489706577
H           -1.39825808835136       -0.17873728676155        3.10740440609922
H           -1.58008296296160        1.09581329672590        3.93780655186442
O            0.76737153725567       -0.51926731708867       -3.03821458050728
H            0.45855115839762       -1.35256943699340       -3.40823631137736
H            1.14893501932039       -0.00636272677297       -3.75928800922251
O           -3.44333047788892       -0.39469161897140       -1.23113005659653
H           -3.87417510201964       -0.35561963851443       -0.37237050145248
H           -4.05507986078028       -0.03400129967562       -1.88226448793812
O           -1.06126368284468        3.44753300422486       -1.69899881070581
H           -0.32729639029579        3.73136432554497       -1.12935017987102
H           -0.89393011962112        3.81881739602593       -2.57006036665206
O            1.19287540480826        3.97693960679326       -0.12814730490436
H            1.14290465235596        4.29057654893496        0.77799252332570
H            2.12625716677425        3.89018197682291       -0.34829112234775
