34
 energy: -56.712645387372 gnorm: 0.000247510017 xtb: 6.7.1 (edcfbbe)
H            1.08496724201768       -0.70175637044200        0.93580586908355
C            0.09847601987860       -0.97816149144849        0.56112686063040
H            0.83738982325162       -0.82353229905487       -1.39401375232905
H           -0.01115705160706       -2.06037075684371        0.62067913553935
N           -0.01481503859406       -0.53217973963424       -0.84092926075734
H           -0.92665680115389       -0.65981877977310        2.43901157794420
C           -0.96651484941556       -0.29543836499428        1.41486193212390
O           -0.66509909691171        1.81449166393422        0.32634639846906
C           -0.76790864846471        1.23097087264200        1.42478444980487
H           -0.12117414919879        0.50285204085743       -0.80375145248568
O           -0.71557691452658        1.80624282639140        2.54353654645935
H           -0.84744779557994       -0.92429005265974       -1.28237053674473
H           -1.96427643623982       -0.49039139473909        1.01641660087543
O            1.81982871429275       -4.03026445122941       -1.05584813166484
H            1.29081879907085       -4.68974169863496       -1.51299414390318
H            1.49554759938930       -4.01048392038462       -0.13384291795747
O            2.77980074047064        0.14717249188544        2.25905336499668
H            3.45528971272796        0.83019956646799        2.25122907289715
H            2.16033948834699        0.37108333710758        2.97597832987930
O            0.83131199538429        0.40702293108679        4.26294492711510
H            0.20633750317724        0.93198815166391        3.71864067976143
H            0.90848487432818        0.87361243767628        5.10037238174820
O           -0.34988180929703        4.52219731573538        2.23608166880228
H           -0.35765830976364        4.61806177519472        1.27803641473723
H           -0.50012638854572        3.56591720808671        2.39664970082754
O            0.73044121623513       -4.03061484663058        1.48224341944495
H            1.17802246425719       -3.45343922735482        2.13372806447997
H            0.55825223338253       -4.85952576374094        1.93677034352195
O            2.11944064980375       -1.54578471211156       -2.12561613416265
H            2.07181656446624       -2.46658552438961       -1.78958453337570
H            3.00991874496927       -1.23517675646285       -1.94322120563308
O            1.89236636683343       -2.32143324861438        3.29094431680062
H            1.32030926881590       -1.75007042321416        3.81735144074830
H            2.47671426812389       -1.70628779637913        2.82072057229257
