28
 energy: -44.603559553047 gnorm: 0.000449994828 xtb: 6.7.1 (edcfbbe)
N            0.72926317136177        0.38035792167156        0.74200745108143
C            1.15487826205834        1.30505642214462       -0.32925680648908
C            1.19007994246358        0.62714429976941       -1.69489402553020
C            2.29500115426514       -0.42681729708330       -1.83883497050264
C            3.69607707533750        0.18560985567463       -1.68769604348507
O            4.19966304993631        0.78561535015337       -2.65857789517385
O            4.27244650233707        0.05256352462715       -0.57500767213041
H            0.49420383951596        0.91623581208102        1.60752573137460
H           -0.09311983556510       -0.14816608421652        0.44531139507612
H            0.45623699778549        2.14104818429406       -0.37116820139893
H            2.14657691596022        1.69071646287442       -0.09142980388596
H            1.34549729945353        1.38913696448960       -2.46015673614206
H            0.22946958632796        0.15046359510723       -1.89807274395174
H            2.18367654504815       -1.22451744522503       -1.10495369206908
H            2.24196206585812       -0.85637696780282       -2.84053603189909
H            1.50023680951619       -0.29027760002077        0.98220087140144
O            2.87752153773083       -1.19628595085476        1.35533815963745
H            3.33145953875023       -1.13892073696958        2.20111973264132
H            3.48505895248763       -0.80604225437967        0.68829470286448
O            0.10432416285958        1.79046204774927        3.02434862383584
H           -0.28908201473957        1.31277982811694        3.76110746280550
H            0.73565492591294        2.41787712157477        3.38710306633978
O            2.59020016351226        2.06676217706893       -4.46626664467508
H            3.21224583939086        1.61362884001048       -3.86069161399110
H            3.11493522479966        2.33462520878833       -5.22619551950025
O            6.64661829397097        1.41532024215229       -0.21741474174528
H            5.81977083449239        0.89891022002931       -0.32493612562823
H            6.83477210604510        1.77528180309348       -1.08899141155663
