34
 energy: -56.710086255156 gnorm: 0.000391160488 xtb: 6.7.1 (edcfbbe)
C            0.27833010542719       -0.49025468402871        1.01882992991022
C           -0.52200445115962        0.25716990813722        2.10164941420537
O           -1.50412758039039       -0.32860925950845        2.61804429134267
O           -0.14913308944498        1.40894497049305        2.40563525810876
C            0.07811078769747        0.17082151240566       -0.34009213091161
N            1.06347680452083       -0.34003421094620       -1.31213387872261
H            1.32937966238243       -0.43389910354584        1.30527097330812
H           -0.04678410470483       -1.52961400453252        1.00418851732939
H           -0.93328712158633       -0.02405758821440       -0.69785139726382
H            0.21068600692988        1.24886504295652       -0.24012295713914
H            1.00676756281059       -1.35764875595544       -1.36819054283745
H            2.02384207526330       -0.06560150211408       -0.98638533498499
H            0.88581989348898        0.07424128921494       -2.26107560425955
O           -2.18851283995165       -2.76570683952140        1.51308205063300
H           -2.66547581685516       -3.28194543730002        2.16918551315454
H           -2.01204210485976       -1.89968870887207        1.93277177241686
O           -0.44389170058041       -1.11178455612961       -5.59851476712289
H           -0.94706321143503       -1.87827459908468       -5.30711662405857
H           -0.78837209099460       -0.85213960780784       -6.45803724108303
O            0.50394087910723        0.74223581690289       -3.74479133820530
H            0.16460427154684        0.09594049202322       -4.38862276957840
H            1.15542752310348        1.27791052380494       -4.20642129734699
O            3.38683071686529        0.59801443102217       -0.23605891522029
H            4.05915186251535        1.05251501677939       -0.75227858584881
H            2.99201764215397        1.26912106055088        0.35404639856445
O            2.11456893768298        2.45400577161146        1.33914468197042
H            2.50223424775467        3.02611817396170        2.00656039209489
H            1.28496528813061        2.10452173199602        1.73283081045021
O           -2.93925769334625        0.58249158844119        4.81623263737895
H           -3.84407082382235        0.50024725207211        4.49752930765427
H           -2.37255220002655        0.31170837598122        4.06699865558910
O            1.12206829974770        2.03689735993154        7.77287168416571
H            0.20509841435447        2.07043052400875        8.06358037953562
H            1.10371684771162        1.89164801532938        6.82195471678005
