34
 energy: -56.693353319075 gnorm: 0.003699580823 xtb: 6.7.1 (edcfbbe)
H            1.19550395045552       -1.17327555227449        0.72801630677544
C            0.21075323841663       -1.60814026756947        0.55303594366750
H            0.24791960526289       -0.78105169731848       -1.35295524816532
H            0.34119380203728       -2.66193946728333        0.30698017917309
N           -0.41276530600330       -0.89071881410034       -0.58121413941685
H           -0.21826517254937       -1.97287445527108        2.64429911549022
C           -0.65102530485609       -1.44087997716991        1.79918006553933
O           -0.94842695271945        0.87921250487436        1.27895639889046
C           -0.80998801852685        0.03794830831306        2.21111340725142
H           -0.68823158517987        0.04157715885567       -0.16565595882962
O           -0.79997625376500        0.31629150932404        3.42084141858330
H           -1.25246377162679       -1.37361073732305       -0.90893887815654
H           -1.65659210223649       -1.83582362415181        1.63731192636785
O           -1.09551724188656        3.55887465763194        1.63377582943315
H           -1.10389970838823        2.57894356390287        1.52497514114824
H           -0.38808748853207        3.87709148214518        1.06458003675379
O            4.15132914047273        0.02167720821490        2.67010079002549
H            3.92633244308164        0.91652367125593        2.94268817006978
H            4.06044248409795       -0.54024672446953        3.44522219458125
O           -3.59491494893129        4.75169002462980        1.16245273613509
H           -2.72966559384849        4.32565430575647        1.30866508295839
H           -3.96251660839352        4.89694603060474        2.03790361393548
O           -3.35010388601271       -3.94183664969448        4.60179802131075
H           -3.42319348276469       -3.23678725748991        5.25356093231571
H           -2.78297360224697       -4.61785103173353        4.98606973248119
O            2.46675417572841       -3.30830367955789       -0.82990765293595
H            2.85559453269122       -2.47145314280855       -0.52455660123567
H            3.05418374571082       -4.00452295373330       -0.52147398432180
O            3.45024392799150       -0.80365427050243        0.08013603797551
H            3.73195680814293       -0.59276342283546        0.98612949174716
H            4.03874403671304       -0.31124512135952       -0.49928951798829
O           -0.19585379273506        2.92136308903758        4.25585002755495
H           -0.40866589593920        1.98068057262465        4.10451709508452
H           -0.54550417373273        3.37489875936985        3.47127728591646
