37
 energy: -59.860647286667 gnorm: 0.000674090781 xtb: 6.7.1 (edcfbbe)
N           -0.14191513166596       -0.06912872486856        1.99617734927884
C            1.11554258188813        0.27244727813462        1.30625894012162
C            0.83982201700027        0.68090931825929       -0.13824614801840
C           -0.08892035021122       -0.28103571844922       -0.89653046921192
C            0.17811894781655       -1.78111351349334       -0.63075306602406
O            0.78942498371973       -2.43745439315870       -1.49406883486656
O           -0.27430808439428       -2.24843112664110        0.44910454502130
H            0.02414622018709       -0.28773878566338        2.97741914919953
H           -0.81325578491708        0.74897999387232        1.93407735401327
H            1.59915135755808        1.09808238646122        1.82875130697179
H            1.77085502459665       -0.60087003327034        1.31818823781755
H            1.79383519022646        0.74616853444581       -0.66038087839409
H            0.37692821274263        1.66729153653060       -0.15258851003876
H           -1.12917741444558       -0.09247149563184       -0.62448907129245
H            0.02220860686153       -0.12679721302925       -1.97007706869783
H           -0.50704371787325       -0.92954124243522        1.51599798426222
O            0.27663559920402        5.20516580828387       -4.67708265776390
H           -0.22608386905017        4.66348520939825       -5.30410642520764
H            0.31000051312788        4.67501519467979       -3.86178156041586
O           -1.52893543316528        3.48945155433044       -0.48669853107116
H           -2.28922924936074        3.94158529081950       -0.86061193213728
H           -0.83839846613801        3.50101655575608       -1.17625527903932
O            0.75691229910237        3.37572518237176        3.15856188260665
H            0.76024304082382        3.48353505284044        4.11445204096350
H            1.06504647161419        4.20372343744031        2.77878029704820
O            0.33137716299814        3.31246789428101       -2.54027391282787
H            1.25021622976325        3.15333423141805       -2.24254390471974
H            0.07024182913101        2.51481851634745       -3.01046699478266
O           -1.51459430581447        2.23442773733167        2.00081069265425
H           -0.78246628461954        2.71201202751774        2.43510540902018
H           -1.60098650224717        2.64477391513273        1.12404975641221
O           -1.22411004216327        3.41344232005290       -6.38767614418848
H           -0.83243696072477        2.95959563544583       -7.14002354103528
H           -2.15488419338815        3.55162930946819       -6.58972441795293
O            2.95602981738029        2.84235267350968       -1.84491430853355
H            3.38194376896221        3.53384894869062       -1.32745827827378
H            3.53649391537455        2.64859470365741       -2.58727501083079
