37
 energy: -59.867723642216 gnorm: 0.000779023598 xtb: 6.7.1 (edcfbbe)
N           -0.35362701737241        0.53781698766033        2.23284464848279
C           -0.86930252161834        0.16278155788592        0.90561552541233
C            0.14269164405081        0.51630872416066       -0.17813354476669
C           -0.33365928886525        0.08208314208870       -1.55916841494915
C           -0.10001436403288       -1.42776942389390       -1.85112647842928
O            0.79566835921550       -2.01857369098973       -1.21349793872874
O           -0.81724231389074       -1.93454507303580       -2.74390336868418
H            0.48308210991437       -0.00396996292445        2.44869069578605
H           -0.11683788107272        1.56062804343292        2.25091028692526
H           -1.79838643888509        0.70110257696284        0.72187259513276
H           -1.08011946755071       -0.90709233482799        0.87836495837604
H            1.08475311374488       -0.00646699962358        0.00487743221529
H            0.32172537099196        1.59315270026976       -0.17546907858321
H           -1.39403884144628        0.28350879108528       -1.71817603039116
H            0.22438360823493        0.60528754594161       -2.34085932059819
H           -1.05783891806098        0.37976250415984        2.99596971018698
O            0.65436445641424        0.49826415203218        5.53452786982238
H            1.00377208816980        0.90194789289709        6.33252262054493
H            0.61278435638166       -0.46301800018231        5.71001950143927
O           -2.36739756866411        3.42568230136952        4.06402052492304
H           -3.12317795935586        3.61033601520058        3.49811456201468
H           -2.41446252921054        4.03347855476079        4.80896524917786
O           -1.83462114563305        0.67271284226675        4.50352807937618
H           -2.13497674963025        1.59192530227845        4.42292630798958
H           -0.96838512548983        0.70641452159886        4.96582337876736
O           -1.97207215051929       -2.55534191424230        2.25933145749344
H           -1.95153966107911       -3.49904485750727        2.09558598579004
H           -2.14742243815915       -2.43881515446267        3.21291888564072
O            0.21948463770100       -2.16797350718374        5.97479379411871
H           -0.70262675322050       -2.20372726167805        5.65030462063498
H            0.68823118770074       -2.88484384708997        5.54050159963704
O           -2.35541044567499       -1.96303191675874        4.97266893948445
H           -3.16225362420010       -2.12766795719098        5.46819323089469
H           -2.31200405843571       -0.99635395300263        4.82327521241461
O           -0.03479374430737        3.23859546857418        2.47264553701106
H           -0.81037700265568        3.38947294430565        3.04275663962168
H            0.72992207649221        3.59598128564054        2.93170932581421
