34
 energy: -56.703414008741 gnorm: 0.000980097813 xtb: 6.7.1 (edcfbbe)
H            1.91940017338296       -0.53943054026754       -0.05195885032421
C            0.85222521748097       -0.75376068812204        0.02482157494059
H            0.51381590048067        0.40671751853751       -1.68077072764478
H            0.66332503433364       -1.75945810571753       -0.34977907579513
N            0.09101329515406        0.23237796373010       -0.76953943389421
H            0.89847957727726       -1.40912274085980        2.09499040444938
C            0.42504608016470       -0.64328069722311        1.48402114146356
O            0.60487199336005        1.74255962657031        1.35523088594733
C            0.76178408108408        0.73592343415136        2.08117360834586
H            0.10732933484950        1.10378218971526       -0.18543918270703
O            1.15106862301361        0.77687464775138        3.27380598519246
H           -0.89319669933684       -0.10513027210747       -0.90180866970147
H           -0.65866172077918       -0.74560855953319        1.57290373591070
O           -3.29438767633922       -0.26385205046704        5.26170018589409
H           -2.81654528576943        0.45303151367461        5.68984392185140
H           -3.10798601450456       -1.06590323390847        5.75930045745535
O           -2.31397618410800       -0.98847053525745       -1.15594290211554
H           -2.49336365840169       -1.60322541905875       -0.41960670638117
H           -2.58204647296454       -1.43569900577949       -1.96321334910565
O           -4.74297473068200       -4.52968148052243        1.23842238762595
H           -4.03580702350251       -3.86430877167783        1.15239672144279
H           -5.56585465095037       -4.06694994485984        1.05358233592088
O           -3.01531095776234       -0.29431064512249        2.49540288507896
H           -3.13096481252804       -0.32881167428263        3.46180652681738
H           -3.62505216639658        0.38046651455773        2.18098091258997
O           -2.69863855680880       -2.58368464688645        1.07464134676140
H           -1.91990550180649       -3.00386886931439        1.45318037296605
H           -2.88221733920972       -1.80478540254975        1.64253133445974
O            1.53319627599955       -1.62351896262202        4.56920222817038
H            1.89035319679768       -1.46199948436960        5.44718844021086
H            1.40764605467785       -0.73954184190256        4.16699921897596
O            1.02200400384168        3.23622051719391        4.51721474722501
H            0.95224109897163        3.85052861750404        3.77951418185000
H            1.10180151095776        2.34894302903604        4.10767935608852
