37
 energy: -59.873308128791 gnorm: 0.003255034212 xtb: 6.7.1 (edcfbbe)
N           -0.73557127042642        0.29008212346999        2.55522668090135
C           -1.03842843106826        0.38957911114549        1.11484705731241
C           -0.03804896847790        1.31058842120096        0.41458372775842
C            0.09971303654312        0.98341494052797       -1.06865148443716
C            1.05612981167743       -0.20270144761545       -1.36621177824495
O            1.70976280813445       -0.70035974048750       -0.42025585144815
O            1.12562586064512       -0.57300677306156       -2.55577675733558
H            0.16676868607834       -0.21920256091913        2.65975877406670
H           -0.64445779730756        1.21800521362151        2.97111237282800
H           -2.05092087478554        0.76806213085773        0.97673814033907
H           -0.98043731108414       -0.60803165807357        0.67785506678905
H            0.95133952964376        1.18152663122604        0.85789005036867
H           -0.33520128361552        2.35466820370646        0.52579671836508
H           -0.86127483338717        0.74415085228048       -1.52782224490974
H            0.51782610783720        1.83036663243511       -1.62012581254967
H           -1.48356823659138       -0.23869578716230        3.06991793050524
O           -2.17167723448571       -2.64510464897750       -0.14003290691370
H           -3.07855310077712       -2.64261097290965       -0.46486789595810
H           -1.65647618377148       -3.18319919956057       -0.74862037094032
O            2.45871980667678       -1.76081394797327       -7.44655773600315
H            2.89345655898143       -1.04926494544315       -6.96555731689017
H            2.00453137031105       -2.30167321764756       -6.79205473299884
O           -1.99770558498917       -3.34484033989652        2.60232363376243
H           -2.01301824643546       -3.11359636698900        1.65856079416141
H           -2.38748987455096       -2.57957657499736        3.06312194820732
O            1.64312384249080       -1.09586846853351        2.27069127013877
H            1.66513423099948       -1.05667069017205        1.29361879236497
H            2.53415426816300       -0.89485630002925        2.56884458102701
O           -2.59852914639965       -1.02728883299824        4.03775819637102
H           -1.97358626998055       -1.24839274121146        4.77004633401712
H           -3.37276226657824       -0.62389263841176        4.43791767217898
O            0.42143821024009       -3.09296857717716        3.83019211208013
H            0.90064850714531       -2.51142781359654        3.21504164656495
H           -0.40731747373998       -3.33810304333863        3.36367084688317
O           -0.72473823835283       -1.70223762053639        5.81145873115980
H           -0.91320982702282       -2.31987458058831        6.52327077684135
H           -0.19382818184558       -2.20865377215119        5.14822003375833
