28
 energy: -34.406378713850 gnorm: 0.000165820219 xtb: 6.7.1 (edcfbbe)
N        1.3769252813     -0.6162409201      0.2946496247                 
C        2.7957468302     -0.2186062903      0.1571945568                 
C        2.9675268539      0.7344980771     -1.0195264644                 
C        4.4170879598      1.1710218211     -1.1862301818                 
C        4.5950759092      2.2347634047     -2.2966836947                 
O        3.5621971887      2.7897752888     -2.7429047281                 
O        5.7616032232      2.4778833114     -2.6654394025                 
H        0.7774561840      0.2356367143      0.4126656669                 
H        1.0634247308     -1.0994915082     -0.5517924041                 
H        3.4137175270     -1.1033510161      0.0019308132                 
H        3.1190587508      0.2771541413      1.0719092693                 
H        2.3672186678      1.6345298641     -0.8820700005                 
H        2.6478684906      0.2676698558     -1.9525674174                 
H        5.0730522321      0.3365604082     -1.4405424995                 
H        4.8016320489      1.6284040833     -0.2712672054                 
H        1.2415331136     -1.2279758379      1.1042461183                 
O       -0.2458936400      1.5840418893      0.5726682293                 
H       -0.2066539507      2.2461255394      1.2681955606                 
H       -0.7323253205      1.9607301220     -0.1651647550                 
O        4.1329311077      4.6235852074     -4.6754167998                 
H        3.8563001010      3.9770750748     -3.9845098096                 
H        5.0915406580      4.5454159046     -4.7083672680                 
H       -0.9978185285     -2.4084502754      0.7556691871                 
O       -0.5115126430     -1.5805159633      0.7238003840                 
H       -1.1468923238     -0.8705010862      0.5980830997                 
O        8.4189268721      3.4024171866     -4.0330442035                 
H        7.6834342272      3.6409245270     -4.6445811508                 
H        8.0211225470      2.7917565910     -3.4045829430                 
