28
 energy: -44.596103529099 gnorm: 0.000416776139 xtb: 6.7.1 (edcfbbe)
N            0.91887727821187       -0.19371563978937       -0.46622222712013
C            2.38994969389463       -0.29255306259033       -0.40088534268301
C            3.04107144445935        0.71223383019019       -1.34435490894609
C            4.56245699125219        0.64600587512920       -1.29073844246482
C            5.22593097637033        1.82892785255003       -2.03369033390942
O            4.61878467248447        2.91791097903095       -2.06672191272287
O            6.35424781624057        1.61291750074951       -2.53549087359451
H            0.61144116761463        0.77564196675892       -0.23863516366537
H            0.59073814835712       -0.41322210575306       -1.40825619883735
H            2.69788706713269       -1.30350353450531       -0.66904965071486
H            2.71192116115594       -0.09396015256448        0.62083821478629
H            2.75281935914246        1.73120895002985       -1.08083056824325
H            2.72741317094670        0.53477781747086       -2.37474913643615
H            4.95676070211979       -0.27430999404035       -1.72367464493301
H            4.91588587182961        0.71402567278490       -0.25826612321641
H            0.48137682400947       -0.85502945465442        0.21497343601366
O            0.04714249514970        2.39740714417959        0.04438468416268
H            0.28858139127338        2.95048017431424        0.79209339311858
H           -0.15856546170796        2.98018667272141       -0.69123179360094
O            3.15122981224836        4.93496634031386       -3.35702066333717
H            3.65115043215624        4.23926836698880       -2.89913873611140
H            3.81379866060814        5.48783237886025       -3.78141758488562
H           -0.59789809681092       -2.76059742064530        1.08979014860270
O           -0.09962633186023       -1.98106162108075        1.35048937598614
H           -0.43945204160821       -1.68068927708710        2.19830481772460
O            8.05101618230738        3.33142562777061       -3.82789869607615
H            8.68473036706814        2.70019216643042       -4.18426428480152
H            7.39461434433852        2.78806906116955       -3.34201520227502
