37
 energy: -59.888677374607 gnorm: 0.002791517882 xtb: 6.7.1 (edcfbbe)
N            0.96593877665486       -0.19695340574779        2.05541698528324
C            0.06862786541584       -0.65352404653160        0.98372150931234
C            0.55038863451246       -0.09136242302383       -0.34875968634255
C           -0.30879291305709       -0.52891038027915       -1.52659585233217
C            0.25930465464938       -0.09531934158425       -2.89490053345546
O           -0.35419369823368       -0.45764071075215       -3.91357310774317
O            1.31056757995431        0.60416497527767       -2.91104890931099
H            1.96252273088864       -0.32755788877968        1.77161035774570
H            0.87013858780736        0.82471415463031        2.22009601547269
H           -0.95136667525456       -0.32639753433776        1.18813407156906
H            0.07953326461352       -1.74299175802556        0.93883316225658
H            1.56524789080648       -0.44173538777054       -0.53027821952726
H            0.56371549826550        0.99820020901681       -0.31507365551384
H           -1.31747010639552       -0.11197282834713       -1.46929002777142
H           -0.40989866087710       -1.61607331642282       -1.57053104320558
H            0.82462575015890       -0.71808492241695        2.94536921844521
O            3.65196832655222       -0.07167528322225        1.37313985646883
H            3.77098372667927       -0.18170457662926        0.41980124102239
H            3.72267567264135        0.87815427755572        1.52841539536907
O            3.63366576730950        0.40914511782563       -1.46715696231073
H            2.81814424730657        0.43990360321937       -2.00770811452032
H            4.36511814270010        0.48646623380204       -2.08594060561603
O            1.23537289697660        2.53459571320413        2.18135146615894
H            0.67913416264791        3.31579532430987        2.18399234172984
H            1.85886508620050        2.63535010938484        1.43200246102646
O            3.81531958128266       -1.56423137261121        3.80058094477768
H            3.90151341126507       -1.18214792176553        2.90997294435809
H            4.25771087996102       -0.95339865147795        4.39660941218738
O            1.13402470860951       -1.77476577602323        4.29174040713191
H            0.85722195021424       -2.68743743095598        4.40105555864599
H            2.10949205180328       -1.78882739892312        4.19351261047520
O            1.25401523066991        3.22811808246894       -2.14583955682638
H            1.44012292501595        3.77139816791039       -2.91622209975061
H            1.23347356274611        2.30407342525017       -2.46353096671306
O            2.89331294747282        2.66829559931104        0.00943839441694
H            2.31800069365145        3.07520177648586       -0.65941352300500
H            3.21656684835671        1.86286058597112       -0.43623048991846
