34
 energy: -56.706928217898 gnorm: 0.000369275749 xtb: 6.7.1 (edcfbbe)
C           -0.02814976971315       -1.00221421310746        0.59064492244392
C            0.59206610893467       -0.25325014197612        1.79705615104825
O            0.45576839948566       -0.81945662385539        2.91078551885468
O            1.18875747082173        0.81844940777143        1.59372605041909
C           -0.19647666438076       -0.11146966865214       -0.62817258917340
N           -0.45127877571869       -0.92058043481297       -1.83117496932447
H            0.65732117631161       -1.82433109295658        0.37513143132265
H           -0.97214597414726       -1.42699732000083        0.93064872630627
H           -1.02024189917856        0.58248402426680       -0.46092233511405
H            0.71421719103902        0.47778540308778       -0.74775357662412
H           -1.30508582047169       -1.50287043345159       -1.71920239404669
H            0.35851122617591       -1.54819723445265       -2.03064935372378
H           -0.62870818012022       -0.35113494169683       -2.67436425650364
O           -0.00070574612777       -2.80479564610324       -4.70430908761050
H            0.67314243387385       -2.79078931716688       -4.00358147643245
H           -0.44348546414442       -3.65536682981791       -4.63502080094264
O            1.69335626535347       -2.56349406837738       -2.45398779786086
H            2.55388645767862       -2.14027342092121       -2.51875042863261
H            1.73228864588954       -3.16399476764515       -1.68930279904371
O            1.72218130017322       -4.01096560738166       -0.08568333105669
H            1.09292380987701       -4.71105514540489        0.11485507292309
H            2.46303055525729       -4.11334718130360        0.51749742591673
O           -1.53066185934408       -0.57115384671568       -4.35774611907851
H           -1.61119385995187       -0.04141944947704       -5.15331313816166
H           -0.98978267933455       -1.35465887649173       -4.59495888071367
O            1.70668088624619       -0.59331084343383        5.28669952707142
H            1.23089025603748       -1.27192890647462        5.77678422917388
H            1.28902585571244       -0.57995171952258        4.39476513707128
O            2.42647750461796        1.80221779500716        6.58361492716938
H            2.40166591417640        2.45065413802329        5.87342903991244
H            2.21713511995197        0.94903113523751        6.16379505420057
O           -2.94262916096350       -1.99599958939551       -2.31926029398392
H           -3.79936599237329       -1.70761340252995       -1.99726896700031
H           -2.77694773170612       -1.52257418030945       -3.15177261875298
