37
 energy: -59.887293152349 gnorm: 0.000204996315 xtb: 6.7.1 (edcfbbe)
N           -0.29647725795809       -1.48616401563442        1.05669437423091
C            0.20085336791638       -0.10013577623531        1.18873356927195
C           -0.07302947083588        0.71322420264957       -0.07301341364567
C            0.61122773634645        0.15004928059289       -1.31889229544482
C           -0.16052006043459       -0.96740692351562       -2.03522087992489
O            0.34966608958524       -1.41850324449265       -3.08825198768306
O           -1.23087715029976       -1.38687654586838       -1.53627034234343
H           -0.79955638586247       -1.80053970966612        1.92366459179352
H           -0.93650320297278       -1.53441017193233        0.24382675564732
H           -0.30002981949418        0.37679935613993        2.03104404595078
H            1.27206741748328       -0.11589514292374        1.38837905010543
H            0.27830582894950        1.73187270806258        0.09044257961915
H           -1.14880380627171        0.75525004173694       -0.25656167545328
H            1.60283310590832       -0.24328747995518       -1.08569895293259
H            0.75243822999792        0.93212447525962       -2.06868444744117
H            0.47362607719021       -2.14897053183172        0.85655423417924
O           -0.57942546164625       -3.76474265836446       -4.29946454794767
H           -1.07585936069898       -4.11166064577878       -3.53946836907619
H           -0.27005605197894       -2.88784270199490       -4.00349608807468
O           -0.50314605451010       -4.91302448313979        0.36471261750383
H           -1.01500526098585       -4.66746025858872       -0.42568913566552
H            0.33176695125700       -4.41707783275930        0.30363474848007
O            2.66228560117189       -2.58519805675299       -2.19944734621564
H            1.90789973355685       -2.16307512909034       -2.65139717979471
H            2.99122744923900       -3.25776707020473       -2.80390862114194
O           -1.62724200741429       -2.22931315046109        3.29990278651261
H           -1.61172940861020       -3.20878639039697        3.23282171302916
H           -2.55445985406614       -1.98466880542469        3.36099773952487
O           -1.97074241981778       -3.96619357497082       -1.81050265147486
H           -1.74810738384652       -3.00784470429544       -1.77280050244486
H           -2.93019622355364       -4.01665797531362       -1.76131874099752
O            1.76601660572727       -3.23718355658423        0.30775250115136
H            2.09208866179421       -3.01973189214754       -0.58709987237937
H            2.53711027677245       -3.47908162710216        0.82992898996939
O           -1.61622695906467       -4.89057675747739        2.83845260533828
H           -1.28054669413169       -4.94149700229388        1.91741739922436
H           -1.11964483840168       -5.54478924925154        3.33671774861634
