37
 energy: -59.868258513580 gnorm: 0.001761573622 xtb: 6.7.1 (edcfbbe)
N            0.58004519547264        0.33513237298175        1.18568494612833
C            0.77548782758009        1.19796129805748       -0.00015306435828
C           -0.35430140149832        1.00497394523216       -1.00466240700659
C           -0.27219190520887       -0.30456118252686       -1.79858181141997
C           -0.88550552828305       -1.54812848832882       -1.13387742777625
O           -1.46612369762031       -2.37224023605444       -1.87753882872152
O           -0.75960952484425       -1.70085133452710        0.10498466860900
H            1.48478431243571        0.11169056436813        1.64366104467111
H           -0.04206036792874        0.78071817363449        1.85902574679685
H            0.81629368855466        2.24069796137475        0.31876166225832
H            1.72446083229031        0.93576841895768       -0.46696078782283
H           -0.32599930770190        1.82025069451918       -1.72786189970885
H           -1.31721216823361        1.05418414767406       -0.49333806426145
H            0.77090210132397       -0.55350462429733       -2.01269594867499
H           -0.77632231293014       -0.18148221322653       -2.75744309627418
H            0.11200291714216       -0.56040304145238        0.85822198145103
O            2.22725834264072        5.66724204821599       -0.97578676686233
H            3.10077716134931        5.33710457186826       -1.20658309316727
H            1.73255429085664        5.75344231245698       -1.79746011493909
O            3.05093944370094       -0.29339309484453        2.30689589248731
H            3.21744710722156       -1.21048007182074        2.54364383861630
H            3.42349588044783        0.26143929425504        2.99975478698868
O           -1.08370693243323        2.67469895179868       -3.88157988047784
H           -1.95933411713791        3.03845244020444       -4.04666722037373
H           -0.99456304586028        1.91784181668943       -4.48611480201820
O            0.90236810883413        2.84553982938802        6.07021111152214
H            1.37544323959941        3.54925514077282        5.61437861005332
H           -0.03666504347756        3.04089664117256        5.99449573148188
O           -0.93630717537795        0.42408185259890       -5.56902239705484
H           -1.27054964893793       -0.41739137506593       -5.20871782279864
H           -0.14877077110160        0.19721991339462       -6.07333602711224
O           -1.71910220915500       -2.03475094250356       -4.53993206866306
H           -2.49962852266482       -2.54104144431944       -4.78621985268605
H           -1.60038077986536       -2.17795599570429       -3.57231016389722
O            0.78349484076259        4.30645979357056        1.03975738903989
H            1.33570851623758        4.80735867015440        0.41682712849317
H            0.02059265417822        4.86203719126019        1.22330400753438
