! Opt B3LYP D4 def2-TZVP TightSCF TightOpt CPCM(water)

%maxcore 5000

%pal
nprocs 15
end

* xyz 0 1
O          2.33518       -1.76268       -4.68827
H          2.37644       -0.98086       -4.08206
H          1.36899       -1.89199       -4.86211
O         -2.32936       -3.28880       -3.92009
H         -3.19534       -2.80865       -3.90931
H         -1.73818       -2.72204       -4.47683
O         -4.97285       -1.04103       -1.51658
H         -4.92199       -2.00585       -1.73329
H         -4.90378       -0.58574       -2.39317
O          0.12426       -2.63942        0.08389
H         -0.07480       -1.82107        0.60447
H          0.88352       -3.05855        0.56153
O         -0.53735        4.48752       -3.39064
H         -0.90184        4.98483       -2.61591
H          0.11868        3.86058       -2.99506
O          2.27674        1.97180       -3.79223
H          1.81888        1.91340       -2.91629
H          1.55421        1.85053       -4.45839
O          1.93559        3.73469       -0.38488
H          1.29352        4.47125       -0.54525
H          1.66922        3.35998        0.49221
O         -4.36960        0.44112        1.36438
H         -4.21964       -0.34218        1.95112
H         -3.57489        0.46422        0.77443
O          1.08868       -4.66241       -2.79431
H          0.37520       -3.98054       -2.71654
H          1.36871       -4.83529       -1.86036
H          3.11581        0.35645       -1.25865
O          2.96692        0.60901       -0.31295
H          2.38721       -0.10824        0.04754
H         -2.45312        1.27326       -5.17911
O         -3.29560        1.78848       -5.10519
H         -3.00846        2.69627       -4.83278
H         -0.59209        2.54747        2.66010
O         -1.56008        2.51460        2.86651
H         -1.84641        1.61410        2.57061
H         -4.38115        3.10466       -0.12481
O         -4.29386        3.65004        0.69701
H         -3.81307        4.46455        0.40400
H          3.34018       -2.74934       -0.52992
O          3.35306       -2.59382       -1.50769
H          2.45557       -2.22903       -1.71213
H         -1.84541       -0.79975       -1.18451
C         -1.61918       -0.20418       -2.09629
H         -0.14434       -1.48306       -2.74231
H         -2.31624       -0.53248       -2.89815
N         -0.24970       -0.46180       -2.54792
H         -2.95995        1.42360       -1.62583
C         -1.87615        1.28892       -1.83036
O         -0.32041        1.08865        0.10760
C         -1.12195        1.85663       -0.65556
H          0.45020       -0.19325       -1.82267
O         -1.26234        3.03493       -0.37132
H         -0.06085        0.06694       -3.42993
H         -1.62217        1.86564       -2.74452
*
