37
 energy: -59.879526343978 gnorm: 0.000224309823 xtb: 6.7.1 (edcfbbe)
N            0.16657147643631       -1.09224688381401        1.70949179747569
C            0.55843965175158        0.24735384452075        1.24935521401193
C           -0.25150456925407        0.69220227625640        0.03124023248906
C           -0.41216521046943       -0.38846788285198       -1.05091415254404
C            0.88616111522185       -1.16139459688764       -1.34948110663062
O            1.66127003960682       -0.75316551786740       -2.22320875070643
O            1.07546174819886       -2.21216213129961       -0.65895073665838
H            0.71029175866855       -1.38132455133095        2.54722346973743
H           -0.85018696959881       -1.19449181144961        1.91739342953275
H            0.41941998309764        0.96824005708047        2.05639499463909
H            1.61649146159777        0.21701505366962        0.97949950525198
H            0.24763098951494        1.55817650758220       -0.40488466735479
H           -1.25017772738015        1.00072605868426        0.34191107244695
H           -1.17355884198541       -1.10925864118306       -0.74966250332018
H           -0.73131077532584        0.08420158858876       -1.98115457514992
H            0.39543196472613       -1.76038198882995        0.94993115571630
O           -4.77952483708695       -1.20683715281825        2.98457522943307
H           -4.76324438915319       -1.35280033626591        3.93533419689398
H           -3.92339338045762       -1.53576649345381        2.65244420133615
O            1.81813325300434       -2.29009178950082        3.56385451227890
H            2.46384054890799       -1.84367643007774        4.11773524081185
H            2.30049318447044       -2.63790654376938        2.78669858530122
O           -1.23878568937544       -3.61823059268524       -0.00250805909243
H           -0.39508952604115       -3.23526925188585       -0.30730121335632
H           -1.34414900653998       -4.45549232830578       -0.45953721582190
O            2.94178337895250       -3.06773157792710        1.19094946411268
H            3.22722166558234       -3.95665767636035        0.96311500252815
H            2.40014503640024       -2.75753399889752        0.44253062127107
O           -0.27392630465045        2.40548941473687        3.63416137840944
H           -0.99719578750222        2.19664862661666        4.23398713785350
H           -0.23518164759636        3.36271962592696        3.56154993511341
O           -0.67572012311891       -3.52436489081084        4.07120518597314
H           -0.53527897052546       -4.47432152225079        4.05068024000068
H            0.20454636105428       -3.11463635953162        4.01804201403407
O           -2.26018371959618       -2.21664535166572        2.23832654052423
H           -1.82754289389053       -2.70867345260777        2.96700543066765
H           -2.14543924768491       -2.77632229932873        1.45436219256737
