34
 energy: -56.711849699818 gnorm: 0.000450531230 xtb: 6.7.1 (edcfbbe)
H            1.79478393808165        0.04782478259582       -0.01735505594210
C            0.94708660184065       -0.61112675165517       -0.21092357581696
H            0.99461030676560       -0.03388139779156       -2.22010637006389
H            1.29833784353347       -1.64044681393052       -0.29676184897485
N            0.29903639559400       -0.20478303832919       -1.47187723191640
H            0.40378284548223       -0.82622356480597        1.87164134037874
C           -0.05096634042463       -0.50603578797203        0.93602517818646
O           -0.72125234749621        1.66648226539783        0.14629509438473
C           -0.61202136925782        0.91801996947969        1.14201926004554
H           -0.21034173059197        0.67301944278627       -1.24280447700463
O           -0.95731293192021        1.23497734370315        2.30668000114859
H           -0.37213920585637       -0.94909433507234       -1.78547378950162
H           -0.90950443595768       -1.15269390502130        0.74587699745140
O            0.65509905532149       -3.89308101774862       -0.57619797034724
H           -0.19298514464270       -3.83005040750545       -0.10302807153734
H            1.05897104827531       -4.72248964561227       -0.31054284855687
O            2.17227068854253        0.23267627960862       -3.50830400503725
H            2.68584033153330       -0.50898326593549       -3.84266015267182
H            1.88291786361934        0.75232957628718       -4.26406941727780
O           -2.71499401847205       -2.52070897985516        2.75031707676954
H           -3.58187830424626       -2.11967709447845        2.86179601606673
H           -2.09029943523471       -1.95773398439245        3.24771085954997
O           -1.18318675821865       -2.39484362957161       -2.14006626336826
H           -1.76474651867766       -2.61946232463458       -1.39964656998428
H           -0.43727425706587       -3.00815205069272       -2.04939005486470
O           -1.14361909896286       -0.71760303516156        4.11173134434577
H           -1.37630214834590       -0.31846289925766        4.95509084814801
H           -1.06321504202352        0.03183416953008        3.47145558697622
O           -2.01123684505033       -3.62202973422322        0.33625144942844
H           -2.20313713702772       -3.20904366288869        1.19936723907495
H           -2.54835052964677       -4.41973957247139        0.30656380387043
O            2.91116136030955       -3.86634143131241        5.05695037558950
H            2.86375716650509       -2.92146541846529        5.23338046045854
H            2.07174115382220       -4.11722008064160        4.65769577114062
