34
 energy: -56.703129776688 gnorm: 0.000175129909 xtb: 6.7.1 (edcfbbe)
H            1.71589051935672       -0.79693238922359        0.59291062672880
C            0.76063201040003       -0.89994138470705        0.07450002591452
H            1.38142804982346        0.54463362740324       -1.30737174875831
H            0.76927878886462       -1.81405056422172       -0.51877018565398
N            0.54344971890720        0.28598788088463       -0.78525349446437
H           -0.18189251562345       -1.83364060985146        1.75631441634311
C           -0.35081178634999       -0.97630387712722        1.11117860886924
O           -0.25598432504910        1.40137102247087        1.43442429363793
C           -0.44820021003197        0.28956895707630        1.97774288238773
H            0.27446378398618        1.04188118314437       -0.08577243981378
O           -0.74236686042087        0.13789175236623        3.18941136788846
H           -0.24217815186953        0.13480075780647       -1.42198561404741
H           -1.32627661953836       -1.10854487099757        0.63672050854414
O           -1.00650158098860       -1.91631084118015        6.36348864190609
H           -1.07630444943598       -1.15918407263697        6.95048178696093
H           -0.17348820548529       -1.80156884713628        5.86626070183365
O           -0.88308321889393       -4.24552973615788        0.65215755738192
H           -0.89768167282199       -5.18304838950858        0.44098582124591
H           -0.56811785835496       -4.17084869345841        1.57243804861758
O           -2.25655691780920       -2.04414224296441        3.88177681239501
H           -1.81984966705807       -1.21354178431218        3.59891980034680
H           -2.11144914783041       -2.06664835407459        4.84654777549328
O           -3.18020770646292       -2.66840737890646        1.07061215836325
H           -3.10424840542960       -2.51154734403905        2.02046850847358
H           -2.43415687828130       -3.25693073547951        0.84459397152665
O            3.00533532995451       -1.18744742384694        2.46867300713178
H            2.40690101389145       -1.27682628825666        3.23148674346521
H            3.71691990146746       -1.81852117349630        2.61387161783838
O           -0.34712022643137       -3.84367570586785        3.35166223257966
H           -1.13258085194559       -3.26219746594697        3.50621825278736
H           -0.43452413995927       -4.57425951756769        3.97104770968955
O            0.98377848765792       -1.62797593083945        4.39377348050503
H            0.40341724395164       -0.93628135198389        4.01736293152872
H            0.67098454781180       -2.46491220734096        3.99119519234547
