! Opt B3LYP D4 def2-TZVP TightSCF TightOpt CPCM(water)

%maxcore 5000

%pal
nprocs 10
end

* xyz 0 1
N          1.18186        0.06174        0.71433
C          2.15200       -0.05060       -0.37321
C          1.62429        0.63314       -1.64632
C          2.58523        0.50738       -2.83925
C          3.88219        1.26061       -2.68575
O          4.14119        2.00679       -1.59485
O          4.70608        1.21695       -3.58403
H          1.00536        1.06840        0.93577
H          0.28516       -0.40455        0.44669
H          2.34088       -1.12644       -0.58389
H          3.10710        0.40784       -0.04693
H          1.40906        1.70568       -1.45058
H          0.67113        0.13615       -1.92849
H          2.79918       -0.56774       -3.01631
H          2.07390        0.90852       -3.74035
H          1.56514       -0.40831        1.56488
O          2.85183        3.74388        0.78803
H          6.08568        3.90489       -2.83041
O          6.72723        3.91181       -2.07610
H          1.99899        3.46577        0.36909
O          1.36783        4.06874       -3.13158
H          2.33732        3.87039       -3.16413
H          3.32200        2.89432        0.98150
O          2.37336        1.73397        3.57529
H         -1.55266        1.34883        1.74089
H          6.92472        2.95594       -1.90916
H          1.67823        1.05212        3.75515
O         -1.76736        0.59702        2.34857
H          0.94476        3.32024       -3.62276
H         -0.94475        0.46860        2.88464
H          3.06323        1.25346        3.05208
O         -2.12082        0.50428       -1.13569
H         -1.92819       -0.44839       -0.94628
H         -1.91880        0.61130       -2.09914
O          3.80687        2.12492       -6.50470
H          2.99191        1.84707       -6.01578
H          5.46685        0.74861        0.93701
H          4.34813        1.29869       -6.57450
H          0.41401       -2.06126        3.23164
O         -0.08873       -2.61410        2.58183
H          3.82977       -1.27718        2.57257
O          5.99829       -0.08403        0.86859
H          3.37434       -1.00440       -5.57520
H          0.58029       -2.85891        1.89398
O          3.64225       -2.24102        2.44520
O          7.19097        2.12842       -5.34677
H          7.53377        2.07608       -4.41934
H          5.45491       -0.67915        0.29345
H          6.88580        0.22028       -1.96974
O          4.01797       -1.74485       -5.44119
H          3.53192       -2.34525        1.46674
H          4.71153       -1.36637       -4.84449
H          6.92188        1.20050       -5.56383
O          7.32097       -0.57263       -2.37247
H          6.79537       -0.75535       -3.19147
O          4.50846       -2.86228       -1.93516
H          4.66773       -1.88761       -1.86635
H          3.58314       -2.93907       -2.27922
*
