37
 energy: -59.871209834534 gnorm: 0.000113450158 xtb: 6.7.1 (edcfbbe)
N           -0.80743086192310       -0.98817355212073        1.05439611075876
C            0.24643620523854       -0.00384716714276        0.74742611196101
C           -0.11539266292597        0.75861251098458       -0.52322976596082
C            0.16663876430777       -0.02769725122294       -1.81019401085397
C           -0.91713294331999       -1.00191496977303       -2.29075098033009
O           -1.08740867594448       -1.10371039155870       -3.52382865346625
O           -1.56142223521056       -1.67154889482020       -1.44315997775918
H           -0.49238379458999       -1.73922800826228        1.66640615101706
H           -1.64457976741989       -0.51841774444377        1.47232646350898
H            0.34360731760475        0.69470829765422        1.57770023943560
H            1.19622793203020       -0.51827668806248        0.59666467132086
H            0.47875624516201        1.67151796229440       -0.56186798791231
H           -1.16646866719791        1.05010441698609       -0.48684223662034
H            1.07398806175918       -0.62457781467579       -1.68135136872059
H            0.34589323681875        0.65640704033554       -2.64095559215384
H           -1.12583608636968       -1.39436980923015        0.13682028114523
O           -1.60456713726902        3.25926709842979       -6.43434243130823
H           -2.19621271516611        2.97991201606465       -5.72855047023245
H           -1.05536714383617        2.50046289964498       -6.65465966866616
O           -2.34172819986461       -3.18604747471680       -4.78417070059538
H           -2.27096955330486       -2.94947419331832       -5.71405463461776
H           -1.91957699932466       -2.44726277793766       -4.29572227796550
O           -1.96408021013818       -3.82358987984022        0.38320079592989
H           -1.74655892359078       -3.34298164570111       -0.42903506471030
H           -2.07857521169830       -4.74394305358247        0.13435872052424
O           -3.14799570754815        0.11891064046534        1.94167280987040
H           -3.63548100386289       -0.48333334329840        1.33997361048585
H           -3.49984862359130       -0.02720500377240        2.82439838934813
O            2.97163538903325       -1.70808702459747       -0.31481516156859
H            3.11333721948973       -2.65878927659633       -0.35430155764039
H            3.84008079999557       -1.29414207723077       -0.32608934393170
O           -3.94204639114764       -1.82477838900453        0.22694596444189
H           -3.49710271004969       -1.61822330324128       -0.60487409681192
H           -3.47306582197639       -2.61565183118510        0.54829882762891
O            1.58933600258222        3.70839341574444       -0.92838722939015
H            2.53158737710343        3.87034051469806       -1.03728117351978
H            1.12941549604676        4.49702475176467       -1.23139376251958
