256
 energy: -431.722293909886 gnorm: 0.000318509095 xtb: 6.7.1 (edcfbbe)
N            0.12796813215663       -0.99557406349544        2.41395041789317
C           -0.58992272229815       -0.82388423014963        1.14181113900401
C            0.30479732465167       -0.15180335380720        0.11200749399696
C           -0.48585829334668        0.30882369498327       -1.11012596933914
C           -1.11456768450368       -0.82169626971531       -1.88796647801106
O           -2.07389724997217       -1.45054247135513       -1.37372014659198
O           -0.66343667904982       -1.08684648927981       -3.03456758655379
H            0.96206448624311       -1.58137405825282        2.24936508965753
H            0.41402928013420       -0.06613446229372        2.76398270624271
H           -1.45739678774048       -0.19120880509740        1.30929847907259
H           -0.93154100538528       -1.78755012125361        0.77043203703051
H            1.09848796270371       -0.82056039842678       -0.20323181351706
H            0.74548578206673        0.73863845264680        0.54962819971718
H           -1.29764349502221        0.94752080249772       -0.77912086094868
H            0.16819751655224        0.86063094905335       -1.77634223508779
H           -0.49812941401461       -1.44160087528567        3.10262574530651
O            3.97644778531829       -4.10225428864873       -0.57039906856103
H            3.89009723589405       -3.14376064583788       -0.40619571703774
H            3.23631659155872       -4.52012967997616       -0.10063214425750
O            3.84372920171938        4.05286579257876       -1.53327264097198
H            2.98119417075513        3.58082873597257       -1.57355883455107
H            3.69503033049474        4.79104580617511       -0.93740323857920
O           -3.44290388702797       -3.42669403638029       -2.39211346608156
H           -2.82749691487175       -2.72069426134815       -2.05135329439496
H           -3.85126313061325       -3.01916607000628       -3.17663137152785
O           -3.90758848169057        2.04888167224181        3.14104962879508
H           -3.17573537813230        2.02787411840385        2.43451550051268
H           -4.69905696668316        2.25570607163784        2.63224664531187
O           -0.38281095052217        4.49938868138926        3.11477862402124
H           -0.13219169894006        3.55265459218024        3.01542187926461
H           -1.28192238602771        4.49369682747473        3.48823869341217
O            1.72329919231774       -3.28681597936316       -7.80490490922136
H            0.83016213759154       -2.93839940964694       -7.62477399366189
H            1.94242622438849       -3.85962054873410       -7.05537067506056
O            2.02081682537558       -2.79549611139669        6.87840316705888
H            1.04945719445826       -2.73564530880950        6.90799016569642
H            2.34551723203249       -1.92118468258500        7.15635555483785
O            1.77269617409114        5.70750872497614       -0.04249892171705
H            2.05100512895732        4.98492919607378        0.56058263306835
H            0.91757873923189        5.99549310254520        0.29539358193496
O            1.03372154759609       -3.15939706355787       -1.08386519901560
H            1.45777079842256       -2.54740070157002       -1.71940896092041
H            1.50389493817100       -2.99817383153498       -0.23724978729452
O           -3.80879576342390        4.77542182754482        0.91741064500656
H           -4.03187166432125        5.21812224250586        0.07868791585800
H           -4.11599941539998        3.85612232589317        0.79605942850644
O            0.64903314197736        2.90370625935651        5.67244150511755
H            0.71348506429533        2.27813551079466        6.41260358180620
H           -0.20926209981034        3.34525626402142        5.80953296756789
O            0.87293202586680       -4.99918455998826       -3.19938929711547
H            1.55140707639444       -4.81207828250575       -3.88240009161849
H            1.09227306045966       -4.42046946030274       -2.44437069635328
O            2.46110422272021        3.55169994568043        1.51954999004639
H            2.59942589337376        3.35429314285519        2.46808348972544
H            3.16913107425147        3.06488000699936        1.05396509644498
O            1.10269964734544       -1.83793790921893       -5.22725943120780
H            0.96152808484723       -1.19689951369560       -5.93487868983660
H            0.27944388733656       -2.34885679431414       -5.12372907970719
O            2.17500994478046        0.13542142492191        4.67271446874423
H            2.55143944297111        0.10999558623876        5.56214899734343
H            2.37634048914714       -0.74701650325724        4.29503206003744
O           -4.30495807384482       -4.05496615590845        0.11821228698717
H           -4.05158119587908       -3.74007778591200       -0.77583237145720
H           -4.30765921698308       -5.01460667628700        0.03128935661799
O           -4.08407027998736        5.68111793666516       -1.67375072609190
H           -4.60236435225373        5.01238529699012       -2.13899336308894
H           -3.16626752971025        5.56989305882296       -1.97852605225391
O           -1.14617410895461        5.40652060121834        0.76497788652122
H           -0.79618437847524        5.21424455610603        1.67439378207153
H           -2.10493999605224        5.22277225622727        0.84436766911955
O            1.37787430840916        2.87294749443994       -1.80062249842710
H            0.87882758484845        2.85611436757739       -0.94429674497696
H            1.02370647820573        3.61466449354460       -2.30318753331452
O            3.59447401952464        2.26909202865143       -6.44804106948113
H            2.79947564170942        1.76410539571286       -6.72037299791967
H            4.11575219747767        1.61539269898956       -5.93982007347886
O           -2.05073732519562       -0.66814490246096       -5.30812248954569
H           -1.56511192105453       -1.19955807740776       -5.97004657663956
H           -1.54280645730447       -0.74483190403530       -4.47471810247643
O            4.92810225309615       -0.29593097145537        3.52615120157218
H            5.43744979592187       -0.87872971359694        2.93507889842576
H            4.08241454350442       -0.15459633047849        3.02703674060405
O           -5.19842255854132        3.05511930056736       -2.55019276387472
H           -5.47016739018455        2.14869251235331       -2.74802271562811
H           -4.39547805109450        2.94980539015220       -1.96993731515776
O           -2.18131766936447        1.86306225237868        1.28148428551816
H           -2.61964669827846        2.18887191000334        0.47879735263620
H           -1.26403847391096        2.20742438409650        1.20805952309428
O           -4.27483530362979       -2.00459556294112       -4.61927418818905
H           -4.27787286683148       -2.67338095283976       -5.31415320252963
H           -3.46888918995176       -1.46757253799235       -4.82855295483191
O           -1.86721378167576       -0.11005216318238       -8.88122394615324
H           -1.17543792978449        0.52328256002142       -9.10176964978455
H           -2.44166215623489        0.36098865791067       -8.25435234194586
O            4.47820829568130        1.96700256224003        0.67012384618195
H            5.05778599053637        2.12609645223187        1.44335731315821
H            5.03357049429350        1.88334405269856       -0.11482921826087
O           -0.55311530789477       -5.15189125320114       -0.17062303023688
H           -1.07539163327565       -4.72082932795806        0.53527661803864
H           -0.18894451185190       -4.40827570172882       -0.68588024543122
O            4.33616329593275       -3.31088154160757       -3.16385901454213
H            3.60249985468607       -2.64930012604251       -3.03689501064065
H            4.33173373967602       -3.80441529048498       -2.32364860604954
O           -1.34972103047234        3.27984783334335       -4.18424564999854
H           -0.86199279853989        3.75837900149893       -4.87879490609611
H           -1.29420485447120        3.82979307386543       -3.38558487404202
O           -1.98108924129314       -3.69971210064862        1.62841411714574
H           -2.13700288945117       -3.21763191740820        2.46882154695424
H           -2.83605255025838       -3.74948039769046        1.17410931059031
O           -1.30367122937688        5.01937298534254       -1.96842283092938
H           -0.48928460965860        5.37972688733876       -2.36475325066341
H           -1.21142947213736        5.22634666593880       -1.02018117285323
O           -2.85163635994538        1.46348538925917       -6.74261699575766
H           -2.58121434054627        0.75280387985400       -6.11961320418864
H           -3.40304687094823        2.08288432313058       -6.23271068709377
O           -3.08340498335068        4.54323402590813        3.73151125445198
H           -3.41171106697984        3.62058405919383        3.60428526689364
H           -3.40904492654214        5.01443770879848        2.95485251385072
O           -2.72138100311314        1.02679031109057        5.47945733795621
H           -1.83681537157860        0.64747286680360        5.25669466582395
H           -3.13990654097020        1.28136760858988        4.64238342474003
O            4.23464477462517       -3.82768243467670        2.86262380245760
H            4.68690098443527       -4.44647951418348        3.43402873309111
H            3.64589310533965       -3.27831283851677        3.44671232751829
O            2.92274381401142        2.70161197104715        4.05363946014071
H            2.75778563694173        1.73825624300871        4.16752089460810
H            2.30405792297363        3.11805759608851        4.66783374772887
O            2.59793109839733       -4.11634333480235       -5.12996599536813
H            3.39251177847430       -3.95673196071974       -4.58566646896340
H            2.16246774266589       -3.23612177826156       -5.17849543706420
O            1.28765426722769        0.75062888767198       -6.69154599801103
H            1.05590683294227        0.89489742063167       -5.73690731923006
H            0.64425809267915        1.29835024149827       -7.18391282530066
O            2.17397935409269        3.52503004485672       -4.56311003417819
H            2.82178746222036        3.20233132470793       -5.22464526289233
H            1.77230438217657        2.71187443843161       -4.20683405665818
O            0.56036648771747        1.18052493375446       -4.16792677432110
H           -0.18766814982606        1.80242776803455       -4.16541383181739
H            0.22164742856128        0.34616503718556       -3.79282848042799
O           -3.95278734581394        3.32608122159626       -5.00734575544624
H           -3.03007215004646        3.44302358603216       -4.69260340779229
H           -4.49258326224138        3.26601404140298       -4.19432317646310
O            5.89265449876806       -1.08418202962965       -2.96376096843119
H            5.56799500649759       -2.00023630396823       -3.07387321059045
H            5.46340294571791       -0.60312786288535       -3.70548278562407
O           -2.60965435216884        1.03742318580126       -3.16318754817962
H           -3.53564548739515        0.80239489564590       -3.34493564453410
H           -2.34024446927256        1.66808996002539       -3.84544518986868
O            0.22034203500332        4.47709020794640       -6.04118167254941
H            1.01125958918202        4.15123104896991       -5.52194334145627
H            0.39460009573156        5.39156751214475       -6.26532029504550
O           -4.29265401772598       -0.15870549144973       -0.55992961709534
H           -4.90205058954203       -0.82296174141331       -0.17549984925207
H           -3.47392861235554       -0.63697433021606       -0.81625041375972
O           -0.88809755269181       -2.14802308736999       -7.32405156169576
H           -1.58339511060135       -2.81713405968335       -7.21540900772794
H           -1.20706145345643       -1.52362756285209       -8.00500934351757
O            0.28412325957012        0.92523615553862        7.58137117285748
H           -0.42638310171744        0.92862026542247        8.22149796931610
H           -0.06992338643857        0.47367895992941        6.75203588584034
O           -3.92267976885301       -0.57239900783028        2.34280130650704
H           -4.04440541880251        0.30424773984562        2.75269620908500
H           -3.62316595194872       -0.38222984931807        1.44131997087495
O           -2.85608651698296       -6.03975251652937       -1.44338945805556
H           -1.97344041711610       -5.89545085325350       -1.04794744555871
H           -3.01193218313805       -5.24028252038996       -1.97230552779691
O            5.55903477116931        2.27547593682214        3.14727038426232
H            4.76102364962336        2.65766989680815        3.55136694049032
H            5.47914360495514        1.31268164355458        3.36478772702338
O            0.12915102202880        1.76013423310269        3.21099376924708
H            0.39506103742963        2.01227317315810        4.11382392872432
H           -0.81060425238330        1.55348662432855        3.25326445751777
O            1.22982944114607        5.57482089676784       -2.78472275756205
H            1.61091594242169        5.68881680034537       -1.89282937767390
H            1.89247465578038        5.10748970509864       -3.31365210980939
O           -2.91082928090509        2.78054236996020       -1.19990232389386
H           -2.32804773036272        3.52015849579502       -1.42508764038666
H           -2.69708877302143        2.06576807743714       -1.84373185984968
O           -0.72977694466786       -2.64292020493729        6.44811422694200
H           -0.79085647729339       -3.45706903611997        5.90462604357083
H           -1.63544780836615       -2.43046239654885        6.70733240730043
O            0.56530710161711       -4.02867729684176        2.84965259976070
H            1.14137280133434       -4.55587878680045        2.27298066867357
H           -0.18294345686691       -3.76172116424975        2.29614360289984
O            4.30095856063914       -1.24590660561497       -0.57100040894596
H            4.88404169940808       -1.20205763466681       -1.34260815631399
H            3.72153853774185       -0.47592751025065       -0.64475132440815
O           -0.81206688216482       -4.90775228103033        4.97337169831608
H           -0.40356492807475       -5.71678220163223        5.28265490613546
H           -0.30705612187225       -4.62844075426209        4.17152446929373
O            5.77860022081293        1.43419179259591       -1.74196500073110
H            6.03837993387478        0.55782785930391       -2.07151600825262
H            6.20911475328749        2.08763898167709       -2.29476830543966
O            3.13274903790940        0.90738383152409       -2.46581995266290
H            2.47127381555356        1.59767033773592       -2.28075839112601
H            3.98550705637441        1.25103670279282       -2.15214157235344
O            2.36239423302458       -2.50064767109489        4.20189509952162
H            1.64103107664842       -2.99064677655410        3.75639425712200
H            2.29513325313377       -2.71545544467412        5.15186848555776
O           -2.81459587491321       -3.91689094498194       -6.24316399607483
H           -2.83178448376727       -4.86777366138984       -6.36919719813731
H           -2.20249060274922       -3.76120383023616       -5.48741160521228
O            4.38461358765966        0.21192166328598       -4.82069365885637
H            3.98920243209332       -0.41608305404408       -5.44864659180079
H            3.70837523377935        0.41213930933289       -4.13774500742208
O            5.84456214115105       -1.98489303971674        1.59978787192251
H            5.33393934245857       -2.74254499909929        1.94604444643271
H            5.34006312075894       -1.68490989273288        0.81595061883619
O            2.84740163971700        0.23315795371513        1.89439535173569
H            3.43174151196631        0.78245715668264        1.34280946534857
H            2.25529843642724        0.85115417493601        2.34101305291622
O            2.74267008672386       -0.15150098845881        7.40484502815797
H            1.87187799514183        0.25731266441874        7.60509187735913
H            3.39726486205386        0.27787794675487        7.95568709815342
O           -1.96017113040343        3.57005839933824        6.16419505321562
H           -2.40982106238891        4.11857004303336        5.50894362603828
H           -2.30073547458553        2.65801024621892        6.01798216667634
O            3.31859803356315       -1.12009970615371       -7.02853985707157
H            2.90488806029034       -1.93057717877604       -7.37443898727098
H            2.61641499892385       -0.44830830368885       -7.07578566726871
O           -0.52794952001606        2.43300509504219       -7.76503251076645
H           -1.39080418830748        2.15495660443811       -7.38635394724676
H           -0.27442106818317        3.22576670104375       -7.25822424786176
O           -5.23771460854148        0.24961626124129       -3.06137856818394
H           -4.96740893770274        0.02653089248150       -2.13678486339021
H           -5.17310657113397       -0.56866734605389       -3.57005312327479
O            0.09885184814206        2.98563642147458        0.49278290556779
H           -0.32149829728060        3.86211907390800        0.45677365521052
H            0.92437112784318        3.11365060689954        1.00926124487938
O            2.30112579659422       -2.39573282593654        1.24668350420908
H            2.71010585824791       -1.51468155380777        1.32420055149222
H            2.93317885546276       -3.02027385199189        1.61337555639779
O            1.90996719225906       -5.52911177155011        0.90189719900431
H            2.15414854092421       -6.45467183758603        0.89770571140735
H            1.04938768919765       -5.46976514896544        0.42664519981787
O           -0.98493515552362       -3.42004209505944       -4.33351784851646
H           -0.40958657137527       -4.09710311515386       -3.91536870881069
H           -0.99924815846776       -2.66252689208931       -3.70713640392893
O           -5.11747189357248        2.26878351240815        0.60412475167623
H           -5.83467005261870        2.53981735513590        0.02954282868603
H           -4.73005087114155        1.47854032882106        0.18103740585655
O            2.31895495237614       -1.60449388209081       -2.83526171401137
H            2.58942027507063       -0.68240523604462       -2.64609197384410
H            1.82654172937737       -1.58063168316074       -3.67523002464322
O           -5.84287566708444       -1.88991760131585        0.86635944686878
H           -5.35068473266618       -1.56222293787211        1.64432593191007
H           -5.44195853355840       -2.75051820066260        0.65490176009121
O           -3.34845312152117       -1.51937272526159        6.26793477289339
H           -4.26649183006248       -1.62190005153632        6.51864952702387
H           -3.20872750628265       -0.56330543128814        6.07857998835864
O           -2.12779459615961       -2.00777662504127        3.73489263535403
H           -2.48914542557072       -2.08048210589815        4.62603294049063
H           -2.76197076599457       -1.44998844198726        3.23888227360910
O           -0.36179047957096       -0.19588869400459        5.30940365823418
H           -0.43873940805872       -1.12727705469945        5.58012364376706
H            0.56730447718619       -0.06499886838741        4.98638974139595
