25
 energy: -41.434906112309 gnorm: 0.000190089464 xtb: 6.7.1 (edcfbbe)
H           -1.50772544789786       -0.71582038424005       -1.30399854422961
C           -1.08604515714666       -0.24809301483888       -2.19506077236790
H            0.69914705674367       -1.30773609565956       -1.88450066425993
H           -1.46871459334915       -0.75418850574437       -3.08180826370384
N            0.38352020392297       -0.35614443309257       -2.14393115424020
H           -2.56447599538211        1.34300576527255       -2.27347694904326
C           -1.48306787617810        1.22456228896985       -2.22438308823329
O            0.12400060045589        1.69001508411508       -0.49731400093633
C           -0.98502853569616        2.00560116848236       -0.98421360250080
H            0.66613292865068        0.34004242613907       -1.41245289092656
O           -1.72033608549582        2.92233255685636       -0.55865797636083
H            0.80434214455520       -0.07714757446421       -3.05156061894823
H           -1.04839761392349        1.71391595523985       -3.09867313306586
O            1.28137914646899        4.24339154313367        3.08529706540948
H            1.59411895718476        3.34971506247341        2.91281455685384
H            0.43213837104322        4.31592616510248        2.61659110026185
O           -1.17147329861506        4.35222174938119        1.68154108908897
H           -1.32334663821328        3.79508366280674        0.88408624409792
H           -1.67684723188115        5.15750604655818        1.53317018281079
O            1.17213896233198       -2.91028247437584       -1.32845135381044
H            1.47875679724191       -3.03116505653756       -0.42579005536853
H            0.86874914213487       -3.76260338222321       -1.65421747909658
O            1.43306532466506        0.39554897454182       -4.62025104896988
H            1.67471265547782       -0.28977050511165       -5.25213746472745
H            2.12007554260000        1.06738188441645       -4.64514941405196
