37
 energy: -59.877966738836 gnorm: 0.000311893260 xtb: 6.7.1 (edcfbbe)
N            0.85060972240501       -1.15939384483966        1.43094510447727
C            1.14636085485887        0.24250355304041        1.10454316670068
C            0.27728822087910        0.72725855371012       -0.05288533928669
C            0.68713259520369        0.17543363952121       -1.42554129156911
C            0.08859323025130       -1.18354490675761       -1.83855333995676
O           -0.22068843634427       -1.34316323701107       -3.03096273360319
O           -0.03319324963251       -2.07520942407156       -0.95246958851607
H            1.55850946477440       -1.59465994541158        2.06635065468969
H           -0.10777131251126       -1.25880554399442        1.81573806860564
H            0.95584871846372        0.86392626308091        1.97956342760977
H            2.19949227041723        0.33200382144092        0.83520557132233
H            0.35005447859172        1.81402872599690       -0.10126394148950
H           -0.76553492616302        0.47186722264659        0.14323432626605
H            1.77323601398155        0.05830254496765       -1.47818342691768
H            0.40041729339958        0.87380181641003       -2.21397763241040
H            0.79626232846402       -1.69383693088181        0.53688110284345
O           -2.13236946765603       -3.40770573015850        5.41346899025834
H           -1.43963993032889       -3.11281180971814        6.01322675748038
H           -2.83039521144340       -2.74570355313130        5.43313980337622
O            2.63878370686687       -2.51465634235811        2.97478046324759
H            2.66043170504021       -2.50181707146497        3.93557533940401
H            2.25452549596215       -3.38163519468406        2.71314671701359
O            0.74505146376536       -4.67053630205496       -0.57671779801091
H            0.46576913160223       -3.76658626359443       -0.81668612087836
H            0.23876417768636       -5.26569627214911       -1.13565470766606
O           -1.47722361530520       -4.30123389053014        2.88959744230924
H           -1.67008429691521       -4.02417694051133        3.80723830551055
H           -2.03507699015490       -5.06503746813197        2.71819064748448
O           -1.77325935693840       -1.96362136617002        1.43309400207839
H           -1.71840263053484       -2.82441414442693        1.89384572997369
H           -1.49869256781295       -2.13990205653749        0.52360344897830
O            0.73251509085733        4.11817435537168       -0.37965833706470
H            0.06693901936699        4.81254901412637       -0.40156462340424
H            1.55722346154983        4.50703539383602       -0.68731317295154
O            1.21996591468828       -4.66894768696872        2.18701549750395
H            1.17290544737332       -4.73508645396557        1.21893273227470
H            0.29697918532249       -4.54212252455971        2.47535275424326
