16
Coordinates from ORCA-job 03_Aminobutyric-acid_zwitterion E -363.024017929566
  N       1.078900      0.096200      0.900500
  C       1.640500     -0.249500     -0.405300
  C       1.250900      0.798400     -1.461500
  C       1.737400      0.463200     -2.881900
  C       3.235400      0.480900     -3.033300
  O       3.813000      1.370100     -3.863800
  O       3.933900     -0.325400     -2.441100
  H       1.447600      1.022700      1.216300
  H       0.034900      0.131700      0.846500
  H       1.255000     -1.246200     -0.715400
  H       2.744000     -0.312200     -0.309000
  H       1.636600      1.798200     -1.164200
  H       0.140700      0.852900     -1.495800
  H       1.342800     -0.527100     -3.196400
  H       1.314400      1.230600     -3.566200
  H       1.355800     -0.633100      1.596800
16
Coordinates from ORCA-job 03_Aminobutyric-acid_zwitterion E -363.035299092842
  N       1.083810      0.093855      0.900252
  C       1.643571     -0.249372     -0.433172
  C       1.256487      0.798108     -1.474016
  C       1.736418      0.463988     -2.893372
  C       3.245033      0.469850     -3.049066
  O       3.759609      1.374918     -3.829394
  O       3.934997     -0.312678     -2.378154
  H       1.437663      0.996338      1.220547
  H       0.063596      0.137088      0.871319
  H       1.255270     -1.226203     -0.725158
  H       2.724828     -0.323345     -0.340029
  H       1.648066      1.776952     -1.176077
  H       0.163122      0.870885     -1.495417
  H       1.348179     -0.515963     -3.191272
  H       1.311221      1.208491     -3.569749
  H       1.349930     -0.611514      1.588959
16
Coordinates from ORCA-job 03_Aminobutyric-acid_zwitterion E -363.036206731373
  N       1.068490      0.088952      0.907912
  C       1.650066     -0.241597     -0.441617
  C       1.257111      0.803719     -1.468723
  C       1.753662      0.486752     -2.885382
  C       3.279545      0.516566     -3.036056
  O       3.720034      1.340913     -3.864629
  O       3.947097     -0.385873     -2.462945
  H       1.394430      0.988491      1.238865
  H       0.056247      0.121436      0.885366
  H       1.275141     -1.216885     -0.718482
  H       2.719262     -0.304991     -0.330525
  H       1.633327      1.776942     -1.159542
  H       0.171280      0.872652     -1.491604
  H       1.388832     -0.496930     -3.178886
  H       1.314485      1.201346     -3.568686
  H       1.332790     -0.600092      1.601133
16
Coordinates from ORCA-job 03_Aminobutyric-acid_zwitterion E -363.037709318126
  N       1.086647      0.092050      0.897831
  C       1.642992     -0.256561     -0.460098
  C       1.255329      0.797032     -1.479464
  C       1.739669      0.472852     -2.900164
  C       3.274211      0.494935     -3.065746
  O       3.730872      1.376466     -3.809365
  O       3.941696     -0.319426     -2.364321
  H       1.436416      0.996195      1.222002
  H       0.065704      0.146012      0.889867
  H       1.238607     -1.232371     -0.718249
  H       2.717635     -0.341221     -0.353684
  H       1.652408      1.767624     -1.169658
  H       0.166141      0.887259     -1.492051
  H       1.367622     -0.516791     -3.183797
  H       1.296323      1.190610     -3.585917
  H       1.349529     -0.603266      1.599015
16
Coordinates from ORCA-job 03_Aminobutyric-acid_zwitterion E -363.038340327441
  N       1.084432      0.095446      0.900339
  C       1.633616     -0.260759     -0.449101
  C       1.252905      0.794238     -1.475093
  C       1.742370      0.467819     -2.893308
  C       3.271679      0.510954     -3.054869
  O       3.752958      1.397348     -3.830924
  O       3.947946     -0.324492     -2.402764
  H       1.444901      0.998649      1.218143
  H       0.062820      0.155214      0.887737
  H       1.221713     -1.236625     -0.710968
  H       2.712402     -0.351155     -0.345594
  H       1.651221      1.767265     -1.164284
  H       0.160696      0.883866     -1.494990
  H       1.383567     -0.528967     -3.175748
  H       1.293110      1.186419     -3.582048
  H       1.345462     -0.603821      1.599674
16
Coordinates from ORCA-job 03_Aminobutyric-acid_zwitterion E -363.038635394161
  N       1.086740      0.097037      0.900320
  C       1.630105     -0.263583     -0.454614
  C       1.252145      0.792612     -1.477216
  C       1.744241      0.467795     -2.894401
  C       3.275897      0.520512     -3.052747
  O       3.743193      1.403679     -3.818304
  O       3.949643     -0.325580     -2.405795
  H       1.450642      0.997149      1.216616
  H       0.067442      0.163151      0.894097
  H       1.211324     -1.235965     -0.708833
  H       2.705949     -0.360193     -0.352282
  H       1.651162      1.762598     -1.163379
  H       0.162103      0.886003     -1.497523
  H       1.394907     -0.531584     -3.173636
  H       1.290840      1.177496     -3.586149
  H       1.345467     -0.599728      1.600047
16
Coordinates from ORCA-job 03_Aminobutyric-acid_zwitterion E -363.038666941764
  N       1.090841      0.099877      0.899761
  C       1.624323     -0.267849     -0.457848
  C       1.250458      0.789991     -1.479705
  C       1.744349      0.463639     -2.895804
  C       3.276391      0.526757     -3.050324
  O       3.741941      1.420436     -3.802238
  O       3.950486     -0.320965     -2.405342
  H       1.463592      0.997911      1.212455
  H       0.071877      0.174702      0.898712
  H       1.195441     -1.237374     -0.706398
  H       2.699930     -0.372882     -0.359556
  H       1.652677      1.758276     -1.164207
  H       0.160818      0.887977     -1.500917
  H       1.403858     -0.539680     -3.171595
  H       1.287253      1.168211     -3.590601
  H       1.347567     -0.597625      1.599807
16
Coordinates from ORCA-job 03_Aminobutyric-acid_zwitterion E -363.038703431567
  N       1.096960      0.105414      0.899234
  C       1.614586     -0.273837     -0.462242
  C       1.248120      0.786023     -1.484055
  C       1.744537      0.454367     -2.898084
  C       3.276613      0.537550     -3.045248
  O       3.739098      1.457281     -3.765911
  O       3.953059     -0.321555     -2.417825
  H       1.483940      0.999641      1.206187
  H       0.078908      0.194322      0.905708
  H       1.169053     -1.238218     -0.701871
  H       2.689714     -0.392761     -0.371051
  H       1.656751      1.751373     -1.167005
  H       0.159326      0.892899     -1.506208
  H       1.420719     -0.556324     -3.166066
  H       1.280324      1.148682     -3.598832
  H       1.350093     -0.593458      1.599467
16
Coordinates from ORCA-job 03_Aminobutyric-acid_zwitterion E -363.038737882746
  N       1.102086      0.110812      0.898261
  C       1.609154     -0.275599     -0.465736
  C       1.245736      0.784002     -1.488632
  C       1.743207      0.444720     -2.900604
  C       3.275167      0.542678     -3.038719
  O       3.736970      1.495800     -3.715414
  O       3.952486     -0.337827     -2.442681
  H       1.496618      1.003177      1.201285
  H       0.084628      0.206915      0.909447
  H       1.153670     -1.236961     -0.698868
  H       2.684197     -0.402325     -0.380228
  H       1.659450      1.747775     -1.172995
  H       0.157616      0.897368     -1.509979
  H       1.431637     -0.571537     -3.160647
  H       1.274910      1.130855     -3.606819
  H       1.354269     -0.588453      1.598528
16
Coordinates from ORCA-job 03_Aminobutyric-acid_zwitterion E -363.038788845391
  N       1.109557      0.118898      0.895988
  C       1.606978     -0.273106     -0.470199
  C       1.240470      0.782762     -1.496005
  C       1.739206      0.431812     -2.905033
  C       3.271365      0.541864     -3.026049
  O       3.736762      1.547707     -3.620403
  O       3.946099     -0.379777     -2.492784
  H       1.506271      1.011909      1.194304
  H       0.092232      0.215768      0.911881
  H       1.146581     -1.233805     -0.696151
  H       2.682612     -0.402446     -0.391448
  H       1.657265      1.747006     -1.185894
  H       0.152730      0.899346     -1.514819
  H       1.437359     -0.589039     -3.155972
  H       1.271034      1.111299     -3.617745
  H       1.365278     -0.578798      1.596528
16
Coordinates from ORCA-job 03_Aminobutyric-acid_zwitterion E -363.038858237324
  N       1.112399      0.122803      0.894255
  C       1.613141     -0.265563     -0.471169
  C       1.235861      0.784359     -1.499887
  C       1.735122      0.427775     -2.907725
  C       3.268254      0.531308     -3.017016
  O       3.742262      1.566527     -3.553151
  O       3.935665     -0.422686     -2.534227
  H       1.498423      1.020689      1.191569
  H       0.094076      0.207109      0.909732
  H       1.162791     -1.230972     -0.696784
  H       2.690086     -0.384849     -0.393114
  H       1.648159      1.752413     -1.196470
  H       0.147436      0.894140     -1.515917
  H       1.427661     -0.591209     -3.157589
  H       1.274066      1.110679     -3.621661
  H       1.376395     -0.571120      1.595355
16
Coordinates from ORCA-job 03_Aminobutyric-acid_zwitterion E -363.038975234483
  N       1.113922      0.127554      0.892067
  C       1.628097     -0.250711     -0.469546
  C       1.228456      0.786891     -1.503732
  C       1.729606      0.427530     -2.910867
  C       3.264849      0.507107     -3.006376
  O       3.756041      1.575560     -3.457317
  O       3.916239     -0.493461     -2.603326
  H       1.474139      1.036167      1.188070
  H       0.093868      0.182703      0.904390
  H       1.204569     -1.227240     -0.698136
  H       2.707040     -0.345616     -0.387527
  H       1.626064      1.763974     -1.211877
  H       0.138230      0.876271     -1.516667
  H       1.400739     -0.582696     -3.166881
  H       1.285342      1.124302     -3.621743
  H       1.394599     -0.556937      1.595668
16
Coordinates from ORCA-job 03_Aminobutyric-acid_zwitterion E -363.039036271666
  N       1.116228      0.130058      0.889583
  C       1.638952     -0.239411     -0.470003
  C       1.222183      0.789349     -1.506873
  C       1.724994      0.428200     -2.912931
  C       3.261411      0.489347     -2.996986
  O       3.767489      1.574454     -3.390050
  O       3.898961     -0.538481     -2.644594
  H       1.457934      1.045948      1.184816
  H       0.095373      0.164231      0.900640
  H       1.235179     -1.223730     -0.700563
  H       2.719346     -0.315872     -0.385566
  H       1.608639      1.772788     -1.222528
  H       0.130858      0.863270     -1.517633
  H       1.380936     -0.575584     -3.173216
  H       1.293900      1.134705     -3.622294
  H       1.409417     -0.547874      1.594400
16
Coordinates from ORCA-job 03_Aminobutyric-acid_zwitterion E -363.039113841782
  N       1.120898      0.134212      0.885734
  C       1.653106     -0.223332     -0.472055
  C       1.213066      0.792914     -1.512538
  C       1.717549      0.426674     -2.916997
  C       3.254986      0.465621     -2.981750
  O       3.781982      1.572151     -3.280895
  O       3.873918     -0.596392     -2.707922
  H       1.438221      1.059038      1.180081
  H       0.099641      0.140882      0.895583
  H       1.274905     -1.217331     -0.703988
  H       2.735106     -0.274817     -0.386145
  H       1.586136      1.784047     -1.238633
  H       0.120736      0.848528     -1.518729
  H       1.356582     -0.569632     -3.181058
  H       1.304057      1.143927     -3.626020
  H       1.430911     -0.535090      1.591534
16
Coordinates from ORCA-job 03_Aminobutyric-acid_zwitterion E -363.039194575777
  N       1.126181      0.142400      0.881716
  C       1.664941     -0.206026     -0.474555
  C       1.205556      0.797460     -1.520249
  C       1.709782      0.415985     -2.921241
  C       3.247395      0.443043     -2.963769
  O       3.784391      1.575743     -3.118500
  O       3.857524     -0.648552     -2.818362
  H       1.422216      1.074060      1.176023
  H       0.105212      0.125140      0.889482
  H       1.306673     -1.207106     -0.706875
  H       2.748294     -0.238157     -0.389868
  H       1.572125      1.794675     -1.261753
  H       0.112868      0.842416     -1.519183
  H       1.338355     -0.576805     -3.180194
  H       1.309966      1.136866     -3.634297
  H       1.450320     -0.519741      1.587824
16
Coordinates from ORCA-job 03_Aminobutyric-acid_zwitterion E -363.039033273333
  N       1.113755      0.135941      0.878519
  C       1.722342     -0.147264     -0.460257
  C       1.194903      0.810994     -1.518576
  C       1.696672      0.433872     -2.926515
  C       3.232288      0.359833     -2.963897
  O       3.843575      1.467397     -2.966266
  O       3.777146     -0.773628     -2.970680
  H       1.312123      1.088926      1.186266
  H       0.099579      0.022508      0.853902
  H       1.481050     -1.178568     -0.710252
  H       2.798467     -0.066796     -0.340288
  H       1.507873      1.829066     -1.280697
  H       0.101714      0.791602     -1.501993
  H       1.255157     -0.519737     -3.219247
  H       1.350238      1.195343     -3.625620
  H       1.474917     -0.498089      1.591802
16
Coordinates from ORCA-job 03_Aminobutyric-acid_zwitterion E -363.036005802674
  N       1.005301      0.126684      0.929077
  C       1.690945     -0.173618     -0.369125
  C       1.304976      0.821876     -1.453800
  C       1.758666      0.384345     -2.876379
  C       3.273353      0.431426     -3.162312
  O       3.753311      1.586287     -3.324213
  O       3.935099     -0.629334     -3.288276
  H       1.260311      1.044301      1.297090
  H      -0.006996      0.115503      0.803716
  H       1.396547     -1.185036     -0.648437
  H       2.755546     -0.139540     -0.182784
  H       1.726646      1.790187     -1.208869
  H       0.216918      0.936657     -1.433833
  H       1.390362     -0.622632     -3.091424
  H       1.265333      1.026478     -3.607375
  H       1.235482     -0.562184      1.643143
16
Coordinates from ORCA-job 03_Aminobutyric-acid_zwitterion E -363.038948235802
  N       1.094516      0.151354      0.891072
  C       1.664596     -0.196779     -0.454165
  C       1.243195      0.811482     -1.509115
  C       1.716905      0.369284     -2.897610
  C       3.248551      0.454284     -3.010281
  O       3.725793      1.621349     -3.068966
  O       3.905833     -0.619708     -3.038489
  H       1.399081      1.070488      1.214767
  H       0.073491      0.159579      0.858112
  H       1.290209     -1.190239     -0.695089
  H       2.749434     -0.240368     -0.351235
  H       1.662440      1.794713     -1.273688
  H       0.154280      0.912990     -1.496017
  H       1.385445     -0.650499     -3.101926
  H       1.271108      1.034693     -3.637444
  H       1.376923     -0.531225      1.596276
16
Coordinates from ORCA-job 03_Aminobutyric-acid_zwitterion E -363.039285481420
  N       1.107283      0.145415      0.883059
  C       1.690797     -0.172548     -0.460310
  C       1.216632      0.813881     -1.517970
  C       1.701187      0.394751     -2.913743
  C       3.238669      0.411512     -2.981922
  O       3.784666      1.552922     -3.000367
  O       3.843371     -0.691342     -2.994294
  H       1.366767      1.081641      1.196658
  H       0.087803      0.098163      0.859238
  H       1.382780     -1.187021     -0.705076
  H       2.771382     -0.156876     -0.347991
  H       1.594462      1.812134     -1.287217
  H       0.124182      0.864719     -1.502110
  H       1.321158     -0.600216     -3.149142
  H       1.301380      1.100006     -3.643338
  H       1.429281     -0.515740      1.590727
16
Coordinates from ORCA-job 03_Aminobutyric-acid_zwitterion E -363.039178915113
  N       1.087665      0.131643      0.875831
  C       1.741584     -0.126553     -0.448697
  C       1.223225      0.829673     -1.510086
  C       1.691719      0.409454     -2.910551
  C       3.225744      0.352987     -2.990074
  O       3.818378      1.467487     -2.961662
  O       3.776828     -0.776366     -3.065341
  H       1.268272      1.079571      1.209575
  H       0.074509      0.014089      0.814062
  H       1.523388     -1.160172     -0.711131
  H       2.816852     -0.024980     -0.300001
  H       1.569469      1.845184     -1.294539
  H       0.130553      0.842054     -1.476838
  H       1.263278     -0.561148     -3.166643
  H       1.321610      1.143391     -3.627012
  H       1.428725     -0.514913      1.589308
16
Coordinates from ORCA-job 03_Aminobutyric-acid_zwitterion E -363.039315888008
  N       1.104632      0.143197      0.883352
  C       1.699814     -0.163526     -0.458581
  C       1.213847      0.815418     -1.516247
  C       1.701493      0.402153     -2.912676
  C       3.239108      0.397863     -2.980712
  O       3.796927      1.531327     -3.002899
  O       3.829429     -0.713225     -3.003119
  H       1.346465      1.083056      1.200089
  H       0.085969      0.079474      0.854938
  H       1.408917     -1.183054     -0.704722
  H       2.780738     -0.128951     -0.342942
  H       1.578170      1.818816     -1.284952
  H       0.120928      0.850921     -1.500007
  H       1.309246     -0.585754     -3.158860
  H       1.312125      1.117127     -3.638403
  H       1.433992     -0.513441      1.591941
16
Coordinates from ORCA-job 03_Aminobutyric-acid_zwitterion E -363.039297045664
  N       1.102858      0.147017      0.883074
  C       1.703391     -0.155746     -0.455872
  C       1.216621      0.819300     -1.518161
  C       1.698788      0.390626     -2.913028
  C       3.236017      0.390710     -2.982272
  O       3.791246      1.525938     -2.920425
  O       3.832134     -0.712186     -3.082516
  H       1.338031      1.087560      1.202777
  H       0.085006      0.077140      0.848390
  H       1.418465     -1.176270     -0.704346
  H       2.783282     -0.116304     -0.337594
  H       1.587276      1.821992     -1.297263
  H       0.123951      0.860653     -1.496430
  H       1.305045     -0.599003     -3.148033
  H       1.307393      1.099451     -3.643692
  H       1.432298     -0.509480      1.591591
16
Coordinates from ORCA-job 03_Aminobutyric-acid_zwitterion E -363.039319030860
  N       1.105363      0.144480      0.883216
  C       1.700228     -0.161546     -0.458551
  C       1.213216      0.816132     -1.517040
  C       1.701086      0.399933     -2.912737
  C       3.238657      0.395479     -2.979836
  O       3.796826      1.529634     -2.981016
  O       3.829682     -0.714473     -3.020576
  H       1.344434      1.085013      1.200052
  H       0.086907      0.077787      0.854283
  H       1.409723     -1.181226     -0.704500
  H       2.781160     -0.126033     -0.344235
  H       1.577476      1.819947     -1.287571
  H       0.120297      0.851300     -1.500124
  H       1.307450     -0.587853     -3.157222
  H       1.312758      1.114281     -3.639583
  H       1.436536     -0.511454      1.591639
16
Coordinates from ORCA-job 03_Aminobutyric-acid_zwitterion E -363.039319750834
  N       1.105688      0.144700      0.883267
  C       1.700284     -0.161202     -0.458609
  C       1.212804      0.816182     -1.517148
  C       1.701237      0.400029     -2.912644
  C       3.238761      0.394774     -2.979460
  O       3.797330      1.528760     -2.978384
  O       3.829352     -0.715302     -3.022552
  H       1.343423      1.085651      1.199883
  H       0.087321      0.076598      0.854470
  H       1.409645     -1.180911     -0.704297
  H       2.781298     -0.125415     -0.344985
  H       1.576279      1.820267     -1.287536
  H       0.119867      0.850594     -1.500451
  H       1.306914     -0.587394     -3.157495
  H       1.313701      1.114715     -3.639602
  H       1.437897     -0.510645      1.591742
16
Coordinates from ORCA-job 03_Aminobutyric-acid_zwitterion E -363.039321340093
  N       1.106039      0.145046      0.883271
  C       1.700917     -0.160063     -0.458529
  C       1.212472      0.816756     -1.517284
  C       1.701396      0.399889     -2.912193
  C       3.238741      0.392836     -2.979157
  O       3.798376      1.526475     -2.970859
  O       3.828162     -0.717441     -3.029389
  H       1.339217      1.087311      1.199438
  H       0.088000      0.072341      0.854206
  H       1.410406     -1.179853     -0.703986
  H       2.781988     -0.123221     -0.345962
  H       1.574771      1.821309     -1.287688
  H       0.119500      0.850186     -1.500812
  H       1.305181     -0.586740     -3.157250
  H       1.315555      1.115024     -3.639719
  H       1.441078     -0.508458      1.592112
16
Coordinates from ORCA-job 03_Aminobutyric-acid_zwitterion E -363.039322589754
  N       1.105791      0.145243      0.883348
  C       1.701492     -0.159156     -0.458182
  C       1.212670      0.817313     -1.517232
  C       1.701439      0.399502     -2.911815
  C       3.238693      0.391503     -2.979379
  O       3.798987      1.524800     -2.964689
  O       3.827497     -0.718698     -3.037053
  H       1.335435      1.088501      1.199126
  H       0.088037      0.069032      0.853843
  H       1.411558     -1.179058     -0.703795
  H       2.782508     -0.121318     -0.345628
  H       1.574829      1.821920     -1.287915
  H       0.119703      0.850744     -1.500664
  H       1.304097     -0.586727     -3.156539
  H       1.316354      1.114517     -3.639913
  H       1.442708     -0.506718      1.592687
16
Coordinates from ORCA-job 03_Aminobutyric-acid_zwitterion E -363.039326069259
  N       1.105198      0.145275      0.883254
  C       1.702563     -0.157827     -0.457753
  C       1.213287      0.818443     -1.517013
  C       1.701329      0.399191     -2.911091
  C       3.238457      0.389321     -2.979854
  O       3.800456      1.521691     -2.955863
  O       3.825659     -0.721074     -3.048209
  H       1.327356      1.090861      1.197459
  H       0.088061      0.061427      0.853485
  H       1.413746     -1.177892     -0.703909
  H       2.783444     -0.118249     -0.344765
  H       1.575759      1.822937     -1.287867
  H       0.120338      0.852391     -1.500228
  H       1.301977     -0.586329     -3.155272
  H       1.317640      1.114091     -3.640151
  H       1.446532     -0.502856      1.593976
16
Coordinates from ORCA-job 03_Aminobutyric-acid_zwitterion E -363.039333032372
  N       1.103797      0.145518      0.883173
  C       1.703754     -0.156212     -0.456940
  C       1.214743      0.820179     -1.516509
  C       1.701134      0.398173     -2.909916
  C       3.238217      0.386477     -2.980912
  O       3.802090      1.517287     -2.939872
  O       3.823604     -0.723538     -3.069648
  H       1.314028      1.095024      1.193770
  H       0.087772      0.049317      0.853616
  H       1.416229     -1.176354     -0.704184
  H       2.784445     -0.114625     -0.342738
  H       1.579224      1.823955     -1.287874
  H       0.121875      0.856291     -1.499068
  H       1.299601     -0.586748     -3.152712
  H       1.318824      1.112221     -3.640678
  H       1.452463     -0.495566      1.596694
16
Coordinates from ORCA-job 03_Aminobutyric-acid_zwitterion E -363.039344716691
  N       1.102611      0.145343      0.883018
  C       1.703512     -0.156941     -0.456572
  C       1.216161      0.820892     -1.515709
  C       1.701233      0.398597     -2.909084
  C       3.238422      0.385969     -2.982416
  O       3.804009      1.515552     -2.936385
  O       3.822191     -0.724433     -3.077956
  H       1.303308      1.098770      1.188056
  H       0.087553      0.038645      0.855726
  H       1.415288     -1.176691     -0.704558
  H       2.784075     -0.115668     -0.341156
  H       1.583115      1.823546     -1.286022
  H       0.123370      0.859516     -1.498273
  H       1.298912     -0.586035     -3.151788
  H       1.319437      1.112406     -3.640481
  H       1.458604     -0.488066      1.599802
16
Coordinates from ORCA-job 03_Aminobutyric-acid_zwitterion E -363.039375835925
  N       1.101190      0.146245      0.882670
  C       1.700958     -0.160586     -0.456604
  C       1.217966      0.820510     -1.514599
  C       1.701605      0.399349     -2.908259
  C       3.239316      0.386688     -2.984102
  O       3.806727      1.513990     -2.924281
  O       3.820966     -0.723596     -3.095450
  H       1.286746      1.107312      1.173420
  H       0.087954      0.021649      0.863294
  H       1.408910     -1.179207     -0.704801
  H       2.781577     -0.122749     -0.339449
  H       1.590287      1.820646     -1.282537
  H       0.125343      0.863998     -1.497441
  H       1.300419     -0.585433     -3.152248
  H       1.319969      1.113211     -3.639892
  H       1.471865     -0.470627      1.606478
16
Coordinates from ORCA-job 03_Aminobutyric-acid_zwitterion E -363.039419870639
  N       1.101239      0.148964      0.882667
  C       1.695910     -0.166501     -0.457262
  C       1.217866      0.817513     -1.514270
  C       1.702591      0.399803     -2.908320
  C       3.241123      0.389461     -2.984806
  O       3.808822      1.514616     -2.905169
  O       3.821995     -0.719283     -3.115205
  H       1.278857      1.116508      1.156980
  H       0.089241      0.013102      0.874367
  H       1.397235     -1.183751     -0.703307
  H       2.776849     -0.135022     -0.339810
  H       1.594418      1.815517     -1.279619
  H       0.125341      0.864147     -1.498318
  H       1.305504     -0.585825     -3.155853
  H       1.320020      1.114418     -3.638890
  H       1.484788     -0.452269      1.613016
16
Coordinates from ORCA-job 03_Aminobutyric-acid_zwitterion E -363.039501268618
  N       1.103517      0.155792      0.883497
  C       1.686795     -0.175539     -0.458455
  C       1.214377      0.809988     -1.515329
  C       1.705037      0.398877     -2.909069
  C       3.244872      0.394639     -2.984405
  O       3.811025      1.515466     -2.861057
  O       3.826020     -0.708375     -3.155186
  H       1.282304      1.129141      1.136362
  H       0.091832      0.016874      0.891687
  H       1.377038     -1.191245     -0.697426
  H       2.768471     -0.154365     -0.342905
  H       1.592662      1.806773     -1.277864
  H       0.121780      0.856422     -1.502714
  H       1.316773     -0.588497     -3.164103
  H       1.320142      1.114942     -3.637322
  H       1.499156     -0.429492      1.620488
16
Coordinates from ORCA-job 03_Aminobutyric-acid_zwitterion E -363.039616535534
  N       1.106888      0.165021      0.885775
  C       1.676881     -0.184766     -0.458537
  C       1.208393      0.798671     -1.517209
  C       1.709436      0.396621     -2.909498
  C       3.250345      0.402555     -2.985874
  O       3.812831      1.517460     -2.814465
  O       3.832673     -0.691462     -3.202175
  H       1.305341      1.138315      1.124533
  H       0.092926      0.043500      0.906234
  H       1.355537     -1.199779     -0.685449
  H       2.759281     -0.173784     -0.345873
  H       1.581826      1.796924     -1.277218
  H       0.115455      0.838861     -1.510632
  H       1.332893     -0.592952     -3.174496
  H       1.319625      1.113847     -3.634557
  H       1.501469     -0.417633      1.625641
16
Coordinates from ORCA-job 03_Aminobutyric-acid_zwitterion E -363.039729418635
  N       1.110226      0.173109      0.887951
  C       1.671727     -0.189255     -0.457762
  C       1.202542      0.788903     -1.519283
  C       1.713731      0.394061     -2.908725
  C       3.254890      0.408637     -2.988295
  O       3.815296      1.516398     -2.777700
  O       3.835789     -0.677475     -3.242980
  H       1.332230      1.141771      1.125474
  H       0.093412      0.076098      0.910662
  H       1.343996     -1.205179     -0.671814
  H       2.754551     -0.182487     -0.347590
  H       1.565577      1.790802     -1.277409
  H       0.109193      0.819223     -1.519482
  H       1.344716     -0.596482     -3.181411
  H       1.320459      1.111941     -3.632183
  H       1.493465     -0.418665      1.626746
16
Coordinates from ORCA-job 03_Aminobutyric-acid_zwitterion E -363.039821105453
  N       1.114238      0.180071      0.889774
  C       1.668543     -0.190634     -0.457148
  C       1.196934      0.782263     -1.521655
  C       1.717073      0.390622     -2.907619
  C       3.258204      0.412422     -2.988750
  O       3.817066      1.512666     -2.742707
  O       3.838311     -0.664505     -3.280669
  H       1.355241      1.143018      1.131929
  H       0.095459      0.104185      0.910820
  H       1.336570     -1.207526     -0.660390
  H       2.751759     -0.185795     -0.350855
  H       1.549652      1.787381     -1.277897
  H       0.103336      0.804173     -1.528266
  H       1.351781     -0.600509     -3.183093
  H       1.322958      1.106986     -3.632941
  H       1.484675     -0.423417      1.625668
16
Coordinates from ORCA-job 03_Aminobutyric-acid_zwitterion E -363.039930827866
  N       1.119249      0.189686      0.892275
  C       1.663770     -0.191714     -0.455938
  C       1.189835      0.774837     -1.524766
  C       1.720958      0.383965     -2.905982
  C       3.262023      0.416185     -2.988191
  O       3.817976      1.503252     -2.685883
  O       3.843666     -0.640878     -3.342601
  H       1.383792      1.144913      1.140035
  H       0.098723      0.139776      0.911498
  H       1.326657     -1.209309     -0.647254
  H       2.747600     -0.189706     -0.355542
  H       1.531599      1.783217     -1.279471
  H       0.096122      0.787984     -1.538768
  H       1.360755     -0.608819     -3.181927
  H       1.326067      1.095623     -3.636206
  H       1.473009     -0.427612      1.624922
16
Coordinates from ORCA-job 03_Aminobutyric-acid_zwitterion E -363.040062315009
  N       1.124149      0.203175      0.895858
  C       1.655826     -0.194029     -0.453262
  C       1.181839      0.765298     -1.528235
  C       1.726298      0.372673     -2.902839
  C       3.267040      0.421339     -2.988509
  O       3.819130      1.482413     -2.599500
  O       3.851566     -0.595272     -3.442296
  H       1.418166      1.148921      1.146284
  H       0.102507      0.185116      0.914935
  H       1.310733     -1.211448     -0.630945
  H       2.740395     -0.197805     -0.360173
  H       1.513602      1.776705     -1.282520
  H       0.088172      0.770209     -1.550707
  H       1.375766     -0.623895     -3.177568
  H       1.328603      1.075166     -3.641062
  H       1.458008     -0.427168      1.626741
16
Coordinates from ORCA-job 03_Aminobutyric-acid_zwitterion E -363.040245759361
  N       1.127783      0.221360      0.901057
  C       1.643276     -0.198208     -0.448229
  C       1.174383      0.753621     -1.531868
  C       1.734255      0.354198     -2.896748
  C       3.273796      0.430132     -2.992422
  O       3.823220      1.438430     -2.478733
  O       3.858859     -0.507709     -3.591245
  H       1.456204      1.156125      1.149381
  H       0.106208      0.240313      0.921987
  H       1.284127     -1.213370     -0.610215
  H       2.728476     -0.213799     -0.363763
  H       1.500053      1.767150     -1.287699
  H       0.080929      0.753875     -1.564038
  H       1.401750     -0.650267     -3.165655
  H       1.328960      1.038799     -3.648389
  H       1.439520     -0.419250      1.632781
16
Coordinates from ORCA-job 03_Aminobutyric-acid_zwitterion E -363.040533302039
  N       1.127700      0.245342      0.905751
  C       1.635441     -0.197066     -0.440286
  C       1.166228      0.739407     -1.536103
  C       1.742735      0.332375     -2.889463
  C       3.281460      0.428369     -2.998676
  O       3.845977      1.307260     -2.299182
  O       3.845188     -0.356083     -3.802378
  H       1.470451      1.178379      1.141255
  H       0.106512      0.280030      0.929294
  H       1.272449     -1.213891     -0.582786
  H       2.721016     -0.212926     -0.358673
  H       1.482189      1.757160     -1.298869
  H       0.073022      0.728948     -1.576837
  H       1.425928     -0.677488     -3.157708
  H       1.333315      1.001874     -3.653985
  H       1.432190     -0.390289      1.644846
16
Coordinates from ORCA-job 03_Aminobutyric-acid_zwitterion E -363.040612811811
  N       1.110487      0.261072      0.913959
  C       1.636602     -0.190765     -0.421945
  C       1.173852      0.732894     -1.532119
  C       1.754980      0.312639     -2.878142
  C       3.289711      0.428058     -3.027053
  O       3.899469      1.156390     -2.202035
  O       3.804126     -0.185701     -3.995066
  H       1.448476      1.196228      1.147696
  H       0.089198      0.294878      0.922541
  H       1.280386     -1.210666     -0.558971
  H       2.720195     -0.196434     -0.332498
  H       1.486068      1.753183     -1.301125
  H       0.080894      0.720772     -1.578821
  H       1.452259     -0.705932     -3.133108
  H       1.330723      0.953352     -3.659204
  H       1.404373     -0.368566      1.662091
16
Coordinates from ORCA-job 03_Aminobutyric-acid_zwitterion E -363.040692528549
  N       1.105647      0.251443      0.911215
  C       1.641076     -0.191395     -0.423428
  C       1.185429      0.741338     -1.529727
  C       1.751722      0.316937     -2.881195
  C       3.285633      0.435240     -3.028361
  O       3.891213      1.208562     -2.241196
  O       3.806246     -0.240683     -3.951346
  H       1.430023      1.191120      1.145945
  H       0.084070      0.270431      0.917492
  H       1.283661     -1.209017     -0.573238
  H       2.723957     -0.200141     -0.330527
  H       1.511700      1.757983     -1.299078
  H       0.092161      0.744128     -1.570297
  H       1.444525     -0.704187     -3.121037
  H       1.317630      0.953684     -3.658780
  H       1.407106     -0.374042      1.659760
16
Coordinates from ORCA-job 03_Aminobutyric-acid_zwitterion E -363.040699978308
  N       1.102866      0.250732      0.913286
  C       1.635592     -0.195317     -0.420881
  C       1.187402      0.742765     -1.525466
  C       1.754186      0.319770     -2.878214
  C       3.287009      0.440587     -3.034064
  O       3.896188      1.225026     -2.262557
  O       3.802602     -0.243761     -3.954624
  H       1.428146      1.190669      1.144922
  H       0.081294      0.270032      0.921147
  H       1.269250     -1.209417     -0.573905
  H       2.718821     -0.212904     -0.329665
  H       1.517549      1.757195     -1.290778
  H       0.094091      0.751012     -1.568074
  H       1.466994     -0.707299     -3.116980
  H       1.314247      0.945057     -3.661094
  H       1.405563     -0.372746      1.663147
16
Coordinates from ORCA-job 03_Aminobutyric-acid_zwitterion E -363.040720536594
  N       1.102113      0.255216      0.912414
  C       1.634598     -0.195427     -0.419945
  C       1.189814      0.741010     -1.527354
  C       1.755421      0.312072     -2.878162
  C       3.287443      0.444107     -3.033494
  O       3.900704      1.189262     -2.228111
  O       3.797791     -0.193608     -3.990143
  H       1.430330      1.194858      1.141249
  H       0.080656      0.277388      0.919899
  H       1.265737     -1.208720     -0.572091
  H       2.717869     -0.215489     -0.328527
  H       1.523651      1.754890     -1.296400
  H       0.096375      0.752739     -1.570259
  H       1.470221     -0.718390     -3.104112
  H       1.306021      0.928242     -3.663062
  H       1.403055     -0.366751      1.664297
16
Coordinates from ORCA-job 03_Aminobutyric-acid_zwitterion E -363.040723473736
  N       1.100806      0.253030      0.912421
  C       1.637874     -0.192024     -0.419640
  C       1.189581      0.743307     -1.526837
  C       1.754408      0.314622     -2.878183
  C       3.286790      0.439779     -3.034837
  O       3.901711      1.188456     -2.233342
  O       3.796892     -0.207212     -3.985377
  H       1.423752      1.193848      1.144410
  H       0.079206      0.270005      0.917747
  H       1.275631     -1.207307     -0.574078
  H       2.720990     -0.206118     -0.325877
  H       1.521861      1.757904     -1.296766
  H       0.096136      0.752709     -1.568505
  H       1.464997     -0.714410     -3.106249
  H       1.308086      0.934141     -3.662124
  H       1.403078     -0.369331      1.663436
16
Coordinates from ORCA-job 03_Aminobutyric-acid_zwitterion E -363.040723843453
  N       1.101254      0.253569      0.912834
  C       1.636317     -0.192769     -0.419463
  C       1.189240      0.742925     -1.526860
  C       1.755306      0.313936     -2.877566
  C       3.287256      0.441718     -3.035574
  O       3.901899      1.191282     -2.234616
  O       3.797447     -0.203782     -3.987209
  H       1.428435      1.192548      1.146125
  H       0.079732      0.275211      0.917987
  H       1.271921     -1.207344     -0.573546
  H       2.719465     -0.209146     -0.326753
  H       1.521295      1.757512     -1.296178
  H       0.095874      0.752437     -1.569765
  H       1.468455     -0.716313     -3.103656
  H       1.307485      0.930725     -3.662730
  H       1.400420     -0.371107      1.663171
16
Coordinates from ORCA-job 03_Aminobutyric-acid_zwitterion E -363.040724024748
  N       1.101270      0.253719      0.912687
  C       1.636290     -0.192558     -0.419588
  C       1.189178      0.743073     -1.526949
  C       1.755265      0.313883     -2.877573
  C       3.287175      0.441641     -3.035297
  O       3.902271      1.188378     -2.232243
  O       3.796845     -0.201536     -3.988843
  H       1.427963      1.192981      1.145527
  H       0.079731      0.274752      0.918250
  H       1.271978     -1.207154     -0.573844
  H       2.719467     -0.208968     -0.326832
  H       1.521295      1.757684     -1.296467
  H       0.095822      0.752476     -1.569884
  H       1.469048     -0.716682     -3.102998
  H       1.307087      0.930158     -3.662930
  H       1.401115     -0.370448      1.663184
16
Coordinates from ORCA-job 03_Aminobutyric-acid_zwitterion E -363.040724067072
  N       1.101173      0.253421      0.912571
  C       1.636736     -0.192154     -0.419710
  C       1.189218      0.743401     -1.526961
  C       1.755066      0.314230     -2.877709
  C       3.287058      0.441051     -3.035144
  O       3.902224      1.188065     -2.232408
  O       3.796725     -0.203292     -3.987867
  H       1.426829      1.193040      1.145478
  H       0.079608      0.273370      0.918165
  H       1.273179     -1.206977     -0.574281
  H       2.719907     -0.207893     -0.326666
  H       1.521196      1.758077     -1.296587
  H       0.095853      0.752551     -1.569696
  H       1.468140     -0.716109     -3.103220
  H       1.307216      0.931052     -3.662837
  H       1.401671     -0.370434      1.663074
16
Coordinates from ORCA-job 03_Aminobutyric-acid_zwitterion E -363.040724073781
  N       1.101174      0.253412      0.912606
  C       1.636690     -0.192177     -0.419694
  C       1.189227      0.743393     -1.526955
  C       1.755130      0.314211     -2.877688
  C       3.287107      0.441122     -3.035237
  O       3.902242      1.188429     -2.232723
  O       3.796787     -0.203385     -3.987826
  H       1.427034      1.192928      1.145654
  H       0.079613      0.273617      0.918160
  H       1.273064     -1.206978     -0.574237
  H       2.719856     -0.207983     -0.326671
  H       1.521129      1.758080     -1.296513
  H       0.095864      0.752510     -1.569773
  H       1.468175     -0.716143     -3.103122
  H       1.307240      0.930963     -3.662840
  H       1.401468     -0.370600      1.663059
