16
Coordinates from ORCA-job 05_Aminobutyric-acid_zwitterion E -363.025755880514
  N       0.722700      0.807700      0.543900
  C       0.968900      2.018100     -0.241900
  C       0.711000      1.806500     -1.746800
  C       1.622600      0.759100     -2.408200
  C       3.076800      1.123500     -2.304900
  O       3.935700      0.298100     -1.676900
  O       3.488100      2.163000     -2.795700
  H       0.840700      1.033100      1.558100
  H      -0.253500      0.467000      0.386300
  H       0.284200      2.819900      0.113200
  H       2.011200      2.368100     -0.075000
  H       0.852900      2.779900     -2.265600
  H      -0.347600      1.499700     -1.891500
  H       1.450000     -0.237100     -1.950000
  H       1.354800      0.680400     -3.483700
  H       1.408100      0.059600      0.296300
16
Coordinates from ORCA-job 05_Aminobutyric-acid_zwitterion E -363.037110586204
  N       0.748981      0.807836      0.535383
  C       0.968945      2.035223     -0.270045
  C       0.705265      1.808777     -1.757908
  C       1.614233      0.755046     -2.406477
  C       3.082466      1.108773     -2.286375
  O       3.844772      0.285746     -1.627750
  O       3.486065      2.186665     -2.746139
  H       0.871920      1.011952      1.528481
  H      -0.197613      0.448303      0.402396
  H       0.294034      2.808486      0.097955
  H       1.991497      2.376550     -0.105284
  H       0.846873      2.765449     -2.264656
  H      -0.341703      1.518293     -1.896908
  H       1.432061     -0.228224     -1.964460
  H       1.361031      0.681298     -3.468477
  H       1.417774      0.076426      0.287863
16
Coordinates from ORCA-job 05_Aminobutyric-acid_zwitterion E -363.037807524520
  N       0.757903      0.807770      0.531473
  C       0.952519      2.055526     -0.282243
  C       0.697183      1.814670     -1.758680
  C       1.618058      0.761930     -2.386102
  C       3.098592      1.122977     -2.221946
  O       3.802457      0.265267     -1.643470
  O       3.518385      2.143561     -2.823436
  H       0.877587      0.992084      1.522115
  H      -0.172262      0.421414      0.405261
  H       0.271047      2.799854      0.105971
  H       1.965303      2.391516     -0.103115
  H       0.838845      2.767669     -2.256035
  H      -0.343635      1.530262     -1.904608
  H       1.429448     -0.217957     -1.958152
  H       1.385994      0.701046     -3.447972
  H       1.429175      0.089011      0.278541
16
Coordinates from ORCA-job 05_Aminobutyric-acid_zwitterion E -363.039110697332
  N       0.784847      0.812070      0.517169
  C       0.965721      2.064005     -0.305074
  C       0.691198      1.811613     -1.774288
  C       1.599442      0.747153     -2.401284
  C       3.098879      1.082956     -2.235377
  O       3.759261      0.284272     -1.561653
  O       3.484180      2.193913     -2.699275
  H       0.920505      0.992421      1.513115
  H      -0.151617      0.418187      0.405394
  H       0.287245      2.803860      0.107028
  H       1.987218      2.389626     -0.131146
  H       0.838021      2.765971     -2.277511
  H      -0.357823      1.540277     -1.908633
  H       1.399320     -0.233594     -1.974383
  H       1.366037      0.685599     -3.465763
  H       1.454166      0.088271      0.249282
16
Coordinates from ORCA-job 05_Aminobutyric-acid_zwitterion E -363.040127119522
  N       0.794477      0.812394      0.517872
  C       0.955250      2.062418     -0.294887
  C       0.683465      1.815398     -1.771992
  C       1.594433      0.757470     -2.407293
  C       3.087575      1.079872     -2.220874
  O       3.784415      0.252566     -1.548667
  O       3.506710      2.157256     -2.709979
  H       0.926548      1.001710      1.514363
  H      -0.138461      0.407873      0.400693
  H       0.260320      2.796638      0.113443
  H       1.973966      2.414103     -0.125750
  H       0.826339      2.773018     -2.279548
  H      -0.367021      1.534994     -1.906832
  H       1.382915     -0.232054     -1.993399
  H       1.374494      0.710064     -3.478337
  H       1.481174      0.102880      0.248787
16
Coordinates from ORCA-job 05_Aminobutyric-acid_zwitterion E -363.040661728771
  N       0.824960      0.811857      0.505317
  C       0.948642      2.071980     -0.304656
  C       0.673632      1.821252     -1.778106
  C       1.582555      0.760484     -2.408081
  C       3.075612      1.066575     -2.183075
  O       3.731201      0.240142     -1.492457
  O       3.521301      2.127425     -2.689860
  H       0.958666      0.996239      1.500355
  H      -0.095368      0.382658      0.393157
  H       0.242141      2.784206      0.115845
  H       1.959320      2.440561     -0.138765
  H       0.816838      2.776705     -2.285360
  H      -0.375824      1.543755     -1.911423
  H       1.352674     -0.229819     -2.010381
  H       1.384336      0.730381     -3.482291
  H       1.525913      0.122198      0.227382
16
Coordinates from ORCA-job 05_Aminobutyric-acid_zwitterion E -363.041139704285
  N       0.865564      0.809448      0.483364
  C       0.942594      2.082155     -0.316573
  C       0.660349      1.830729     -1.787201
  C       1.565126      0.763171     -2.408806
  C       3.054814      1.049605     -2.137700
  O       3.661834      0.232010     -1.406220
  O       3.532665      2.093083     -2.652998
  H       1.005153      0.986024      1.478207
  H      -0.040896      0.351592      0.376977
  H       0.225022      2.771085      0.120715
  H       1.946188      2.469379     -0.157667
  H       0.805266      2.785031     -2.294637
  H      -0.389512      1.557845     -1.919075
  H       1.313460     -0.225236     -2.021527
  H       1.393048      0.743975     -3.486760
  H       1.585926      0.146702      0.187501
16
Coordinates from ORCA-job 05_Aminobutyric-acid_zwitterion E -363.041827758600
  N       0.905378      0.807974      0.464141
  C       0.934496      2.090216     -0.325345
  C       0.647202      1.839870     -1.795397
  C       1.549088      0.767277     -2.412048
  C       3.034021      1.031956     -2.096931
  O       3.595433      0.219910     -1.325690
  O       3.549625      2.054079     -2.617816
  H       1.049277      0.979386      1.458775
  H       0.014307      0.320892      0.362169
  H       0.204192      2.755728      0.125704
  H       1.929431      2.500591     -0.173227
  H       0.793111      2.794035     -2.302181
  H      -0.403108      1.570204     -1.927042
  H       1.275625     -0.219744     -2.037076
  H       1.402202      0.759840     -3.493328
  H       1.646321      0.174385      0.152889
16
Coordinates from ORCA-job 05_Aminobutyric-acid_zwitterion E -363.042788138138
  N       0.946070      0.807243      0.445035
  C       0.925998      2.096914     -0.333313
  C       0.634155      1.848764     -1.803536
  C       1.533323      0.771645     -2.416251
  C       3.011564      1.013620     -2.057197
  O       3.525293      0.207134     -1.247032
  O       3.567383      2.013061     -2.578927
  H       1.093142      0.974634      1.439599
  H       0.072137      0.290258      0.346423
  H       0.182927      2.738810      0.130308
  H       1.911256      2.531821     -0.187958
  H       0.780850      2.803586     -2.308707
  H      -0.416530      1.582066     -1.935847
  H       1.238130     -0.213534     -2.053718
  H       1.411797      0.775596     -3.500264
  H       1.709105      0.204984      0.118985
16
Coordinates from ORCA-job 05_Aminobutyric-acid_zwitterion E -363.043895550324
  N       0.985358      0.806712      0.426237
  C       0.917745      2.102184     -0.339998
  C       0.622064      1.857423     -1.810980
  C       1.518661      0.775947     -2.420509
  C       2.988965      0.995963     -2.019949
  O       3.454399      0.198861     -1.170215
  O       3.585382      1.969655     -2.542899
  H       1.135009      0.970178      1.420848
  H       0.129166      0.261343      0.329872
  H       0.162709      2.720769      0.135378
  H       1.892638      2.561499     -0.200578
  H       0.769682      2.813173     -2.314123
  H      -0.428894      1.593394     -1.944248
  H       1.202557     -0.206794     -2.069604
  H       1.421218      0.789921     -3.506473
  H       1.769940      0.236374      0.084842
16
Coordinates from ORCA-job 05_Aminobutyric-acid_zwitterion E -363.044986981788
  N       1.020631      0.807835      0.412917
  C       0.907484      2.106053     -0.343183
  C       0.612345      1.865089     -1.816577
  C       1.507033      0.780978     -2.427132
  C       2.970089      0.976843     -1.991548
  O       3.388190      0.189389     -1.105689
  O       3.607641      1.921497     -2.515806
  H       1.168837      0.969739      1.407802
  H       0.183937      0.233756      0.316318
  H       0.138660      2.700691      0.140429
  H       1.869946      2.591703     -0.206498
  H       0.760365      2.822474     -2.316556
  H      -0.438519      1.602653     -1.952126
  H       1.171220     -0.199949     -2.089951
  H       1.430171      0.806864     -3.514165
  H       1.828569      0.270985      0.059365
16
Coordinates from ORCA-job 05_Aminobutyric-acid_zwitterion E -363.045840327821
  N       1.037190      0.809154      0.417820
  C       0.893785      2.102078     -0.332866
  C       0.606906      1.871779     -1.818887
  C       1.504284      0.788678     -2.445937
  C       2.963913      0.960553     -2.000508
  O       3.352883      0.172100     -1.065706
  O       3.644784      1.873897     -2.505994
  H       1.178528      0.980170      1.414485
  H       0.215934      0.211204      0.319676
  H       0.109376      2.686686      0.144964
  H       1.846226      2.614516     -0.197282
  H       0.750370      2.836734     -2.311432
  H      -0.443486      1.602970     -1.960832
  H       1.152535     -0.189814     -2.112390
  H       1.430448      0.817500     -3.534023
  H       1.882926      0.308395      0.046512
16
Coordinates from ORCA-job 05_Aminobutyric-acid_zwitterion E -363.046682222931
  N       1.069202      0.804090      0.395007
  C       0.887086      2.104831     -0.336411
  C       0.600273      1.881358     -1.820718
  C       1.493701      0.793537     -2.442589
  C       2.946557      0.948715     -1.967527
  O       3.274949      0.217846     -0.975318
  O       3.671804      1.802091     -2.515267
  H       1.212919      0.962626      1.391773
  H       0.265011      0.185603      0.293538
  H       0.093190      2.663642      0.153253
  H       1.826280      2.638099     -0.199277
  H       0.746287      2.845275     -2.312023
  H      -0.449208      1.613809     -1.963115
  H       1.125003     -0.180503     -2.117202
  H       1.436530      0.830064     -3.530544
  H       1.927016      0.335519      0.004021
16
Coordinates from ORCA-job 05_Aminobutyric-acid_zwitterion E -363.047703909071
  N       1.047591      0.798819      0.412499
  C       0.877790      2.099833     -0.320501
  C       0.612330      1.883403     -1.809943
  C       1.503878      0.798240     -2.444393
  C       2.968631      0.950829     -2.003226
  O       3.301068      0.288539     -0.968578
  O       3.705183      1.736262     -2.630917
  H       1.173742      0.956157      1.411038
  H       0.244884      0.181773      0.296943
  H       0.073706      2.653098      0.157759
  H       1.810035      2.639389     -0.165408
  H       0.763096      2.848525     -2.296360
  H      -0.435898      1.616919     -1.960368
  H       1.139226     -0.178006     -2.122336
  H       1.426844      0.841524     -3.530408
  H       1.914494      0.331295      0.031800
16
Coordinates from ORCA-job 05_Aminobutyric-acid_zwitterion E -363.048367729042
  N       1.046537      0.800617      0.418576
  C       0.860907      2.100026     -0.305568
  C       0.615984      1.886390     -1.798505
  C       1.508116      0.804937     -2.444412
  C       2.979263      0.937810     -2.018508
  O       3.305357      0.324662     -0.947171
  O       3.740683      1.647118     -2.702128
  H       1.160875      0.952651      1.419673
  H       0.256338      0.169902      0.289726
  H       0.038441      2.635151      0.163717
  H       1.779159      2.659853     -0.135808
  H       0.771446      2.852659     -2.281965
  H      -0.430883      1.618351     -1.958904
  H       1.137418     -0.176072     -2.141227
  H       1.425000      0.870035     -3.528764
  H       1.931960      0.362509      0.028869
16
Coordinates from ORCA-job 05_Aminobutyric-acid_zwitterion E -363.048873487427
  N       1.041380      0.793455      0.421772
  C       0.850007      2.096118     -0.291350
  C       0.620190      1.889993     -1.786941
  C       1.512494      0.814244     -2.442488
  C       2.988438      0.936068     -2.033826
  O       3.297859      0.432291     -0.900731
  O       3.776678      1.527216     -2.794417
  H       1.149507      0.935252      1.424820
  H       0.256172      0.159150      0.281952
  H       0.015633      2.620503      0.170127
  H       1.759089      2.666710     -0.107021
  H       0.781736      2.856690     -2.268034
  H      -0.424799      1.620164     -1.957432
  H       1.142324     -0.171691     -2.152255
  H       1.420731      0.897360     -3.524885
  H       1.939160      0.373076      0.018310
16
Coordinates from ORCA-job 05_Aminobutyric-acid_zwitterion E -363.049000129923
  N       1.055279      0.800549      0.432036
  C       0.823753      2.098671     -0.274515
  C       0.622155      1.895501     -1.774239
  C       1.513493      0.827078     -2.446329
  C       2.994619      0.905728     -2.048919
  O       3.287259      0.457403     -0.890525
  O       3.810059      1.391248     -2.855084
  H       1.130542      0.934397      1.438611
  H       0.305360      0.131655      0.263944
  H      -0.039477      2.587540      0.172767
  H       1.705807      2.702840     -0.070616
  H       0.791338      2.863873     -2.249102
  H      -0.420615      1.629681     -1.962576
  H       1.134199     -0.166146     -2.193472
  H       1.423014      0.948137     -3.525018
  H       1.989814      0.438445      0.040637
16
Coordinates from ORCA-job 05_Aminobutyric-acid_zwitterion E -363.049074573344
  N       1.050673      0.797696      0.427657
  C       0.824484      2.098478     -0.275006
  C       0.619743      1.896087     -1.774287
  C       1.515170      0.828807     -2.442415
  C       2.997090      0.911396     -2.046875
  O       3.293173      0.474122     -0.882953
  O       3.812513      1.390837     -2.856166
  H       1.143220      0.929292      1.433495
  H       0.290741      0.137707      0.269873
  H      -0.033978      2.593139      0.175244
  H       1.711622      2.696274     -0.073721
  H       0.787107      2.864922     -2.249304
  H      -0.422562      1.627981     -1.962403
  H       1.141980     -0.165054     -2.182593
  H       1.422797      0.940828     -3.522121
  H       1.972827      0.424089      0.019174
16
Coordinates from ORCA-job 05_Aminobutyric-acid_zwitterion E -363.049084201665
  N       1.051632      0.797384      0.428292
  C       0.824970      2.097879     -0.275798
  C       0.618342      1.896493     -1.775793
  C       1.514640      0.831021     -2.444289
  C       2.995989      0.911572     -2.046628
  O       3.288841      0.472100     -0.881866
  O       3.814125      1.391865     -2.852221
  H       1.144934      0.930553      1.433855
  H       0.291787      0.136835      0.272240
  H      -0.032431      2.593544      0.175277
  H       1.713255      2.694934     -0.076498
  H       0.783560      2.866439     -2.249457
  H      -0.423788      1.627696     -1.963769
  H       1.143392     -0.163346     -2.183101
  H       1.423382      0.940039     -3.524421
  H       1.973969      0.421590      0.021778
16
Coordinates from ORCA-job 05_Aminobutyric-acid_zwitterion E -363.049089654684
  N       1.051768      0.798061      0.428174
  C       0.823304      2.098451     -0.275622
  C       0.617337      1.897032     -1.775382
  C       1.514881      0.833776     -2.443495
  C       2.996983      0.910246     -2.046613
  O       3.289591      0.469744     -0.883055
  O       3.816304      1.385925     -2.854075
  H       1.145795      0.930825      1.433594
  H       0.293045      0.136167      0.272385
  H      -0.034696      2.592693      0.175511
  H       1.711163      2.696050     -0.076589
  H       0.781018      2.867655     -2.248098
  H      -0.424302      1.627270     -1.964228
  H       1.145958     -0.161829     -2.183082
  H       1.424125      0.941857     -3.523758
  H       1.974324      0.422678      0.021933
16
Coordinates from ORCA-job 05_Aminobutyric-acid_zwitterion E -363.049090373959
  N       1.051629      0.798286      0.428401
  C       0.822288      2.098447     -0.274909
  C       0.617065      1.897174     -1.774773
  C       1.515211      0.835204     -2.443557
  C       2.997744      0.909394     -2.047334
  O       3.289708      0.471973     -0.882290
  O       3.818386      1.378962     -2.856990
  H       1.145777      0.930772      1.433913
  H       0.293624      0.135605      0.272363
  H      -0.036409      2.591849      0.175933
  H       1.709624      2.696742     -0.075625
  H       0.779797      2.868312     -2.246906
  H      -0.424336      1.626614     -1.964072
  H       1.146926     -0.161068     -2.184404
  H       1.424668      0.944008     -3.523769
  H       1.974898      0.424323      0.021618
16
Coordinates from ORCA-job 05_Aminobutyric-acid_zwitterion E -363.049090472696
  N       1.051519      0.798320      0.428408
  C       0.822237      2.098430     -0.274788
  C       0.616994      1.897116     -1.774613
  C       1.515324      0.835538     -2.443650
  C       2.997951      0.909311     -2.047367
  O       3.289584      0.472775     -0.881938
  O       3.818922      1.377226     -2.857631
  H       1.145683      0.930741      1.433912
  H       0.293603      0.135584      0.272288
  H      -0.036473      2.591824      0.176058
  H       1.709533      2.696789     -0.075558
  H       0.779078      2.868419     -2.246623
  H      -0.424347      1.626093     -1.963663
  H       1.147060     -0.160855     -2.184934
  H       1.425014      0.944663     -3.523849
  H       1.974918      0.424626      0.021548
16
Coordinates from ORCA-job 05_Aminobutyric-acid_zwitterion E -363.049090497767
  N       1.051435      0.798342      0.428415
  C       0.822389      2.098429     -0.274823
  C       0.616914      1.897002     -1.774594
  C       1.515383      0.835632     -2.443784
  C       2.998036      0.909310     -2.047269
  O       3.289457      0.472774     -0.881786
  O       3.819088      1.377099     -2.857491
  H       1.145644      0.930787      1.433919
  H       0.293439      0.135691      0.272306
  H      -0.036150      2.592079      0.176075
  H       1.709812      2.696667     -0.075770
  H       0.778407      2.868405     -2.246594
  H      -0.424411      1.625599     -1.963259
  H       1.147015     -0.160780     -2.185309
  H       1.425314      0.944940     -3.523985
  H       1.974830      0.424626      0.021549
