! Opt B3LYP D4 def2-TZVP TightSCF TightOpt CPCM(water)

%maxcore 5000

%pal
nprocs 6
end

* xyz 0 1
N          0.72270        0.80770        0.54390
C          0.96890        2.01810       -0.24190
C          0.71100        1.80650       -1.74680
C          1.62260        0.75910       -2.40820
C          3.07680        1.12350       -2.30490
O          3.93570        0.29810       -1.67690
O          3.48810        2.16300       -2.79570
H          0.84070        1.03310        1.55810
H         -0.25350        0.46700        0.38630
H          0.28420        2.81990        0.11320
H          2.01120        2.36810       -0.07500
H          0.85290        2.77990       -2.26560
H         -0.34760        1.49970       -1.89150
H          1.45000       -0.23710       -1.95000
H          1.35480        0.68040       -3.48370
H          1.40810        0.05960        0.29630
*
