28
 energy: -44.597316270786 gnorm: 0.000291745963 xtb: 6.7.1 (edcfbbe)
N            2.17342253555049       -0.18172176279364        0.96844502126462
C            3.09162699359084        0.85492150183153        0.45735309313895
C            3.01112461599200        0.94533800169872       -1.06186170468437
C            3.94561246522309        2.01524342675424       -1.61252275271754
C            3.76550107948771        2.23347730781557       -3.12727096282038
O            2.67881427821783        1.89854291667664       -3.64779240720541
O            4.71782918665835        2.75994606704469       -3.75127120078133
H            1.20397377365144        0.00733733705555        0.63992816285348
H            2.44655429531392       -1.10236478804590        0.62008656641973
H            4.11370040931584        0.61853940727259        0.75381023357699
H            2.81799164090825        1.81617123051139        0.89086617870433
H            1.99827823221789        1.19452044869570       -1.38144541721237
H            3.27753661774158       -0.00762998639281       -1.52247511923361
H            4.99527289004742        1.77779741945110       -1.43396420382177
H            3.74182697409970        2.98480708273436       -1.14989672407841
H            2.17657857542045       -0.19954128557466        2.01107187389529
O           -0.40234977998177        0.25752378842866        0.00460947117194
H           -1.01738632987167        0.94808381050806        0.26644697607885
H           -0.71942284564432       -0.12189696300469       -0.81846774803844
O            2.23031979893408       -0.16700306208216        3.72953441956564
H            3.00159646853452       -0.34840578654017        4.27282048095831
H            1.60227228982255        0.32795268940688        4.26274475663290
O            2.48569545144476        2.40595314832263       -6.32971471367555
H            2.48995559202160        2.20165303874125       -5.36702990439991
H            3.36279130431314        2.75858594769516       -6.51042072706600
O            7.14663085245085        2.91167558675944       -2.52854646278195
H            6.28475264465634        2.87712714989920       -2.99827157440729
H            7.73567884015469        3.40446378134699       -3.10778888130212
