49
Coordinates from ORCA-job input E -1203.975434329119
  N          -1.81341681956049      0.12352123454567      0.42546513441335
  C          -2.78257818288969      1.09575075705738     -0.16355623918271
  C          -3.69071816617783      0.52391146802572     -1.24737702314172
  C          -3.09774517028956      0.45147135160816     -2.65630241920943
  C          -2.14146371350117     -0.68716054543892     -2.96714020262653
  O          -1.17580959814134     -0.44237762206530     -3.75474700882404
  O          -2.36947151094261     -1.83330913002094     -2.49601541864074
  H          -1.33701005618137      0.57368308378241      1.22815941067304
  H          -2.29389907221932     -0.72305369757317      0.79271761523865
  H          -3.38895112151098      1.44657268717531      0.67012712717189
  H          -2.20456228401823      1.93966702984154     -0.53925639068925
  H          -4.55272735544002      1.19258139401031     -1.29573030007347
  H          -4.08118681864101     -0.44652837341495     -0.93843572522846
  H          -2.62022155186535      1.39608685817074     -2.91736609572458
  H          -3.92188466419008      0.31505771824719     -3.36556625726531
  H          -1.05848533149384     -0.16958252743389     -0.20988164583845
  O          -4.33104616446305     -3.04506724496043     -4.34085796803028
  H          -3.64663036941530     -2.68460217532957     -3.75364191476771
  H          -5.14737829617034     -2.96760141114595     -3.83228619617222
  O          -3.13951931006787     -2.10600753694158      1.56987149415758
  H          -2.50345615001417     -2.71756868216196      1.96112957669397
  H          -3.50940781584002     -2.57021556986215      0.78186989069238
  O          -1.10717633836807      1.15121618439510     -6.01811207101324
  H          -1.17714410973411      0.68096483598715     -5.15935416377536
  H          -0.58929442289286      1.94549184841487     -5.83828595688137
  O          -0.59014956788620      1.54879350730247      2.58259929363622
  H           0.36560548761752      1.64876801582886      2.48004881491451
  H          -0.70855813257491      1.13878954836740      3.44964003170944
  O          -0.71440489596138     -3.98518839106759     -3.32411939837924
  H          -0.72486796060431     -3.79423984319230     -4.27969057452085
  H          -1.32371889515973     -3.30824726674271     -2.96169928186871
  O           1.14261251765238     -1.87538916342817     -2.96717033370245
  H           0.73685573574048     -2.76502474021590     -2.98669371912615
  H           0.44175566731311     -1.32323589125707     -3.36915075835825
  O           0.75980591984241     -0.48711148168279     -0.68557650217832
  H           0.99292087008021     -1.11176157133202     -1.41618658268143
  H           1.40466230990118     -0.61828591800713      0.01958453241897
  O          -1.04743335814785     -2.52509655119664     -5.75194279054743
  H          -1.12514312504218     -1.81225530704702     -5.09137304876440
  H          -0.62620407758403     -2.08396860431935     -6.51641851306247
  O          -4.11845311787896     -3.06621384607529     -0.77788231626500
  H          -3.51956435581413     -2.59962028068783     -1.40277455654640
  H          -4.03321575484694     -4.00512405245072     -0.98440114149675
  O           0.39301919231239      1.71511049142663     -2.45725141560067
  H           0.63829971924618      1.09977769174964     -1.74249916855560
  H          -0.15378098947203      1.16347259241410     -3.03907839775670
  H          -0.42947165479876     -0.75582972330099     -8.52155478633593
  H          -0.34263840914009     -0.00928228832066     -7.16400625061779
  O           0.03191211023562     -0.76255639177709     -7.67403379626898
