37
 energy: -59.866550559347 gnorm: 0.000571443040 xtb: 6.7.1 (edcfbbe)
N            0.04141763904202        0.29305033792691        1.75049935827780
C            1.00295986265826        0.66710766983798        0.69716720656628
C            0.27987640149670        1.26197329290152       -0.50630601309945
C           -0.93716449120138        0.45224618002626       -0.97965689172497
C           -0.73433645479589       -1.07834246585005       -0.98593968322025
O           -0.55136372539149       -1.65252604743065       -2.07614394524124
O           -0.79112238385649       -1.66087219957259        0.13213599376284
H            0.51812797532347       -0.03480381711911        2.58887222295585
H           -0.58570955763000        1.10675331675688        2.00014134495278
H            1.71339313544510        1.39687428518209        1.08507110748773
H            1.54095436558805       -0.23063574479332        0.38561482622367
H            0.99712124902096        1.34173554801346       -1.32255418105323
H           -0.06683387553907        2.26583912651645       -0.26545851038949
H           -1.79861990730161        0.65813767109072       -0.34123200672743
H           -1.18720895958605        0.74940749962538       -1.99827556020633
H           -0.51759247396169       -0.49988525199235        1.34149934933868
O            3.33162649756486        2.68072662761995        1.99458876425185
H            4.11763268058358        2.18853747966209        2.25018593249194
H            3.10551152939893        3.25929053506237        2.73020374141045
O            2.91431204775597        3.56911696865775       -0.67561758573165
H            3.72066921342393        4.03785418209658       -0.90944513160934
H            3.02788896049958        3.26745894469786        0.24157933919382
O           -1.54497675659258        2.37386759738820        2.44378265650919
H           -2.43469310007447        2.18222487239102        2.12250274665341
H           -1.28275398845950        3.17292448051551        1.95191327835889
O           -3.49009672863919        2.77277496106820        0.39384743832454
H           -4.20365659703216        3.06903730508005       -0.17525251433645
H           -2.80528666494731        3.46573040539312        0.36191410653006
O            0.43886842034674        4.66090761777157       -1.32657070740601
H            0.11197342040769        4.17848982140872       -2.10214854891627
H            1.30814108972998        4.26898483809381       -1.11710960283408
O           -0.61805872842480        3.31822396357005       -3.61747513406604
H           -1.46806393414652        3.61478868370091       -3.95795853065851
H           -0.08053714838860        3.07588826124299       -4.37706413735448
O           -1.32067801623831        4.56322513846523        0.70575980541297
H           -0.67391479251409        4.58427382150825       -0.03674256801312
H           -1.39672620347570        5.47194709345785        1.00928403386323
