34
 energy: -56.718061960833 gnorm: 0.000494538437 xtb: 6.7.1 (edcfbbe)
H            0.99528763790888        0.71847208366618       -0.48090824107672
C            0.71125142261855       -0.31364460388832       -0.69480022747878
H            0.41152965295483        0.14051001338930       -2.71451749197633
H            1.61467846801694       -0.91330875456080       -0.81083111363087
N           -0.07249958741361       -0.35536399807060       -1.94056321774026
H            0.41767641616555       -0.88273336122522        1.38394921863965
C           -0.14457492256652       -0.83855528823530        0.45231826790892
O           -1.96749217719843        0.54254791894663       -0.29189884177010
C           -1.39845793611285        0.04154209376360        0.71040094423164
H           -0.98331687773006        0.08599466139329       -1.69471710423478
O           -1.76997490236279        0.17615955272943        1.89204018646867
H           -0.23383376003177       -1.35185238157995       -2.22699220992258
H           -0.50925563317357       -1.84229476184828        0.22396914791693
O           -1.65227544258682       -2.39787978252603       -5.04818771221256
H           -2.32274286796113       -1.73082043728853       -5.21307055566600
H           -0.80656310495274       -2.03564471224309       -5.40262808641714
O            2.01115068733974       -3.19386794872939       -3.85649093889347
H            2.24242552988965       -4.11569390102413       -3.99324062479009
H            1.16012025177813       -3.18599069866787       -3.36928241156957
O            1.57564461744888        0.64096997899583       -3.91873745534647
H            1.91433140933990        1.53142345399726       -4.03270785834157
H            2.29218566884438        0.10576026561274       -3.50689579262903
O           -0.43483411318119       -2.95144386167326       -2.70034591362433
H           -1.00162300148747       -2.86624177003438       -3.49742288221852
H           -0.93861373355808       -3.43603889904809       -2.03000363086065
O            0.79686994865841       -1.41688631200419       -5.66212983930493
H            0.97206634429467       -0.58795607044860       -5.18250896369741
H            1.32647763303828       -2.08230612023278       -5.18648217175074
O           -1.85186391204151       -4.14747564617951       -0.59893013489277
H           -1.59934760943082       -4.94052700167151       -0.11587987749507
H           -2.80401176198340       -4.04758557148983       -0.51010248452384
O            3.32361375117649       -1.05167528335773       -2.73713121061376
H            2.92389599896134       -1.86909331170453       -3.09585527079012
H            4.26462990537096       -1.10336254476321       -2.92001050166982
