34
Coordinates from ORCA-job 02_Alanine_zwitterion E -858.873041727020
  O           0.04592632445139      2.07236207798852     -4.88261538031621
  H          -0.64786695149321      2.71417785797678     -5.08437123500017
  H           0.12303228274915      1.52693290700118     -5.67678434730470
  H          -0.13034298058442      2.27883972349656      1.03893858431583
  O           0.41572163673373      2.64038417715125      1.77915782807599
  H           1.10510469495140      3.16686228414764      1.35701099243177
  H          -1.00267835067406     -1.53804736317293      0.40268370862732
  O          -1.46540054727289     -0.87640485880508      0.93149632379580
  H          -1.27897958058448     -0.01445303423044      0.49684055564063
  H          -2.27372054689526     -0.50331051838985     -1.78690340611502
  C          -2.07724752162208      0.28832398817472     -2.50721638948590
  H          -0.17721791426929     -0.53805571716788     -2.88008521775045
  H          -2.48855047836375     -0.01182069210369     -3.46937507141145
  N          -0.59722067029567      0.38816220819392     -2.66189910023765
  H          -3.75980004984637      1.49824325598180     -1.98425269834921
  C          -2.67650287918378      1.60848788501256     -2.05288523861836
  O          -1.13094654536794      1.59592663060841     -0.20899749513877
  C          -2.16620756791888      2.14931838307705     -0.71256322377310
  H          -0.22036515268629      0.74747245963347     -1.77820987895119
  O          -2.78087114120552      3.11184216715531     -0.21880401269522
  H          -0.34779711311149      1.03860075769614     -3.42837957878359
  H          -2.49516180440726      2.38377272758284     -2.80387946542077
  O          -4.25584954441753     -0.92729381766142      0.61024145337286
  H          -3.27947780162343     -0.94299583642462      0.69143356428532
  H          -4.42888352709664     -0.49192216207703     -0.23246975706120
  O           1.03854727754174     -1.44966620805038     -6.10014311283894
  H           1.57460287292688     -0.64783992931843     -6.16021610585715
  H           0.25010851632420     -1.26519378107007     -6.62774600704727
  O          -1.97745185068290      4.14596171158178      2.23551425275710
  H          -1.08629942866638      3.75681788424384      2.28699842497761
  H          -2.30719346307725      3.80053164478140      1.37730465295907
  O           0.39783887864864     -2.11032072278530     -3.48236848439992
  H           1.19652193228759     -2.42610551930663     -3.04187217799357
  H           0.65948899473269     -1.92114057092172     -4.41042295668851
