! Opt B3LYP D4 def2-TZVP TightSCF TightOpt CPCM(water)

%maxcore 5000

%pal
nprocs 10
end

%geom
    MaxIter 500
end

* xyz 0 1
  O           0.04864579930993      2.06191677818554     -4.88966036198389
  H          -0.65020856190437      2.69621594402791     -5.09739509997401
  H           0.13469965808906      1.51357708318887     -5.68090968497662
  H          -0.13408490966839      2.28148604717505      1.03946079488392
  O           0.40556671271376      2.64298237738785      1.78446273034851
  H           1.09844025146407      3.17045566856497      1.36940087193802
  H          -1.00749422862861     -1.54903984833112      0.38917285282137
  O          -1.45517373525651     -0.88014868204464      0.92191576704809
  H          -1.26110004298263     -0.02144089375750      0.48422354880890
  H          -2.27099197502724     -0.50608869858251     -1.78802934332470
  C          -2.07473278303765      0.28506068873505     -2.50896735721354
  H          -0.17446406613459     -0.54169192606568     -2.87951972227567
  H          -2.48580356135504     -0.01598025841670     -3.47093814639504
  N          -0.59452841555858      0.38495427658082     -2.66316418584351
  H          -3.75780371431846      1.49398729152375     -1.98721441240150
  C          -2.67456133890605      1.60510353870688     -2.05537196930313
  O          -1.12909701176567      1.59549028344643     -0.21114491228657
  C          -2.16543684418692      2.14668356073730     -0.71486678185944
  H          -0.21879972192642      0.74618255855648     -1.77977572254684
  O          -2.78199744584477      3.10819541582567     -0.22154470144339
  H          -0.34458053169180      1.03412426286321     -3.43058819572436
  H          -2.49296762421138      2.38065590882112     -2.80596136832903
  O          -4.24873514997257     -0.90436980335591      0.62458464614013
  H          -3.27179993663755     -0.92438750023091      0.69786277733148
  H          -4.42673588638113     -0.48098627728306     -0.22319769873685
  O           1.01109687854831     -1.44653064382271     -6.10779763733452
  H           1.60266873290781     -0.68347981489309     -6.15115708212337
  H           0.21894148497765     -1.17655448866911     -6.59153542708488
  O          -1.98959672388907      4.14198421280850      2.23707226919198
  H          -1.09790140685958      3.75427087431568      2.29115050002489
  H          -2.31410703533223      3.79989334412057      1.37565195157039
  O           0.39971219004864     -2.11496559755299     -3.48197516776076
  H           1.20440590445746     -2.42286304580459     -3.04676290893679
  H           0.65338503896114     -1.92624263676143     -4.41232082224835
*
