! Opt B3LYP D4 def2-TZVP TightSCF TightOpt CPCM(water)

%maxcore 5000

%pal
nprocs 33
end

%geom
    MaxIter 500
end

* xyz 0 1
C        0.0007170000     -0.5225580000      0.6780440000                 
C        0.0001550000      0.0939270000      2.0503680000                 
O       -0.0001950000     -0.6301310000      3.0322620000                 
O       -0.0007970000      1.4315590000      2.2164330000                 
C        0.0009890000      0.5253110000     -0.4432600000                 
N       -0.0003010000     -0.1165910000     -1.7566520000                 
H        0.9025930000     -1.1629280000      0.5788880000                 
H       -0.9026400000     -1.1602380000      0.5790170000                 
H       -0.9020020000      1.1674130000     -0.3510370000                 
H        0.9036660000      1.1689490000     -0.3517200000                 
H       -0.8570690000     -0.7055320000     -1.8675230000                 
H        0.8532280000     -0.7100690000     -1.8677950000                 
H        0.0016560000      0.6208870000     -2.4970260000                 
O        0.4172429253      3.3271223750      4.1278805000                 
H        0.3985273017      2.4713441126      3.6300436381                 
H        0.4465162014      4.0230919137      3.4240475039                 
O       -0.0287662001     -0.5998010876      6.1306685729                 
H       -0.0478069566     -1.5338211031      5.8026120529                 
H       -0.0356958970     -0.0477895403      5.3085711572                 
O        3.6557983970     -0.9463862867      3.0871656800                 
H        4.0157637112     -0.8937848591      4.0080538830                 
H        2.6725939291     -0.9267266092      3.2034902325                 
O        2.8619731471      1.7668682626      1.6109567703                 
H        3.2219526346      1.8194970780      2.5318384057                 
H        1.8787959661      1.7865004177      1.7273152213                 
O       -2.6705468446      1.9634806703      3.1969581659                 
H       -2.2359731987      2.7478451370      3.6168345044                 
H       -1.9238468286      1.4505100171      2.7971303591                 
O       -2.2657392727     -0.3868126718      3.7249551701                 
H       -1.9961877262      0.2977542878      4.3876666998                 
H       -1.4538500596     -0.5359832269      3.1780992556                 
H        0.6376697589     -2.2703507265      3.1935839488                 
O        0.5743738245     -2.8485578063      3.9950015787                 
H        0.7008796563     -3.7674583049      3.6486134176                 
H       -0.0206237398      5.2413844044      0.9786916970                 
O       -0.0378720779      4.8065720108      1.8681886150                 
H        0.1193528816      3.8475464223      1.6786558927                 
H        0.2808902259      3.0131642685     -3.4736367565                 
O       -0.0955681369      2.1060051172     -3.5997397116                 
H       -0.3235566281      2.0635531898     -4.5624158938                 
H        2.5985443110     -2.0461060088     -1.9061550839                 
O        1.7000424641     -1.8423622830     -2.2692641935                 
H        1.7922287161     -1.9717971617     -3.2466696146                 
H       -2.3921537235     -2.6963094276     -1.7136341817                 
O       -1.9716224712     -1.9112840894     -2.1466771751                 
H       -2.3069935741     -1.9324786660     -3.0781453566
*
