52
 energy: -85.348724613577 gnorm: 0.000269305346 xtb: 6.7.1 (edcfbbe)
N           -0.75654161169204        0.94567878661415       -0.47560781952200
C            0.39285035970068        1.79472497724671       -0.81937644249263
C            0.30013631025859        2.32398677872446       -2.24895663048974
C            0.71469789222794        1.31760380887921       -3.33676283288248
C           -0.37966452264667        0.35433374422891       -3.78175810483561
O           -0.69572184774194        0.30661057502525       -4.98788708176724
O           -0.92037911015729       -0.38643485729187       -2.91351316758427
H           -0.62815924574171        0.54934650229999        0.49079029748511
H           -1.64133110128151        1.48989613516101       -0.51539763441496
H            0.41841393394860        2.63089569951151       -0.11970520163085
H            1.30686955812798        1.21214136480139       -0.69219551821233
H            0.96691570041662        3.18158541610998       -2.33589897500471
H           -0.71484517561340        2.67826252679722       -2.44064310044230
H            1.55322617632688        0.71494498353785       -2.97871683889839
H            1.03797540814866        1.84930454336657       -4.23377776338618
H           -0.83120301361953        0.18906563607779       -1.17101932232343
O           -0.21360548302784       -0.04849895500189        1.98393723408186
H            0.54082131380564       -0.56085936380573        1.63413042046403
H           -0.91712800478245       -0.69796650278530        2.19120394847085
O           -3.53837543805404       -0.36295572914082       -2.14463133027557
H           -4.09273032265104       -0.48905078437415       -2.92085699738022
H           -2.62586410059419       -0.33735284825697       -2.49205197577007
O           -3.36975926205224       -0.44385584048941       -5.18031952305434
H           -3.71949626380442       -0.22045395629454       -6.04642496619511
H           -2.44003928704816       -0.13807812856245       -5.17642855414153
O           -3.25939051035596        2.07580860951905       -0.88258106460187
H           -3.54790685942698        1.25050124645238       -1.31848603588482
H           -3.86873246039722        2.23482743135155       -0.15671022150437
H           -0.15335583323377       -1.67556727488125       -1.99164351542997
H            0.62872372664361       -2.99579952660399       -2.08355753260509
O            0.14009614564016       -2.43405085807084       -1.45592377403870
H            1.13446342935020       -1.77116087563199       -0.16925797994904
H            2.31126414116385       -2.01181101732206        0.81475349352542
O            1.69162788448881       -1.34335957340755        0.51536976040226
O            1.47209695609843       -3.60991300086206       -3.57487589372240
H            1.52482941723664       -4.54965115915841       -3.77055107179147
H            1.05569576748920       -3.19774554023880       -4.35798078940719
O           -2.29143585546035       -1.77722674529983        2.24572210636583
H           -3.16907239492647       -1.51006578500092        2.53061532243982
H           -2.38675550285406       -2.08419585778294        1.31714939910645
H           -1.62573505834927       -2.57010448725070       -0.75712702758377
O           -2.50807592120848       -2.41495684537400       -0.38162792635166
H           -2.94491595031424       -1.77079723763982       -0.96277031396188
H           -0.83784349021628       -2.76898336184512       -5.16121878898021
O           -0.00861395244774       -2.49941152430294       -5.62177555013580
H           -0.07679564959375       -1.53770550099772       -5.69047728091271
O           -2.18157125493849       -2.69389666491120       -4.02625645531034
H           -2.87112924374887       -2.21338142279872       -4.50986785746617
H           -1.73449005238502       -1.99887254884014       -3.50845326172144
O           -0.03331647186445        2.76734476318286        2.26181631010832
H           -0.00626395157079        1.79697834032502        2.31220621076693
H           -0.56175120636663        3.05756046381322        3.00930263208584
