34
 energy: -56.704254801093 gnorm: 0.000289614381 xtb: 6.7.1 (edcfbbe)
H            2.00251352688331       -0.20362771091342       -1.43313312169966
C            1.02643435125021       -0.67257415189191       -1.30262360258049
H            0.23878387966895        0.58958754762151       -2.77747758109414
H            1.01051032595016       -1.62265116245453       -1.83920377824154
N           -0.01086292240887        0.23015535909677       -1.83809990099257
H            1.51164303109943       -1.60237406148206        0.59589237826344
C            0.78397848167986       -0.90509853778761        0.18354969589266
O            0.43715436537221        1.45414470161633        0.49002580440899
C            0.83658184894170        0.39256032191580        1.01645668524556
H           -0.06611427513647        1.00957410975660       -1.14651616856562
O            1.25550140356159        0.30207562405598        2.19613426590661
H           -0.92747451167590       -0.25061404728952       -1.88922467558612
H           -0.20952683822658       -1.32775388640419        0.34595743269486
O           -2.58028310723329       -2.84297363253948        3.55021982325455
H           -3.04397106370078       -3.63541187321521        3.84097547814708
H           -3.19493417862683       -2.10721219770024        3.63887874955165
O           -0.01312975301330       -2.35133072148299        4.76031617446172
H           -0.83970014025756       -2.56904401145230        4.29845378558023
H           -0.01475512421762       -1.37886048280234        4.84320653765765
O            2.18737379174187       -2.20167384354737        3.00311849702919
H            1.95603019448467       -1.28575854928833        2.75529451226993
H            1.51823651525464       -2.44118998305383        3.67086725387178
O            0.17572215973557        0.44145413048204        4.70871533326347
H            0.52319894799690        0.48584236378851        3.79787018314102
H            0.84116835814319        0.86418747116324        5.26081421514903
O            1.34706897598055       -3.64316948569853       -2.81581263800644
H            1.02940356295452       -4.44328098716218       -2.38742519581416
H            2.23821637916525       -3.82652434125203       -3.12705213376848
O           -2.41886718879416       -1.19088371329970       -2.15210752498441
H           -2.76179137809543       -1.88962845957679       -1.58945270219992
H           -2.64847016821575       -1.41112794482184       -3.06051289345936
O            0.76340111753450        1.16994666504925       -4.35566259230055
H            1.06009476250066        0.58796041698531       -5.06146537473702
H            1.22164666973802        2.00908707364481       -4.45208892167497
