37
 energy: -59.865053884906 gnorm: 0.000519416844 xtb: 6.7.1 (edcfbbe)
N            0.05823216151213       -0.38913784710713        2.12698812794746
C           -0.42625828649841       -0.12843616378270        0.75862009962057
C            0.29985445496744        1.06408108327612        0.14808373290023
C           -0.20077279138005        1.35297686727243       -1.26226624986952
C            0.23025266040249        0.30821804078463       -2.32081327423475
O            0.98453134890357       -0.62492012364301       -1.95939971470900
O           -0.20208095736567        0.47714929493651       -3.48004099448633
H            1.05269807040386       -0.61756525782716        2.10101047633976
H           -0.06638550016962        0.46859216959064        2.71503849893601
H           -1.49805547727262        0.07016683150649        0.78627294791380
H           -0.24615749535920       -0.99880048370649        0.12792452106460
H            1.36905121930675        0.85127559641402        0.08403409151658
H            0.14800125569186        1.94690661060251        0.77070265018432
H           -1.29047037505532        1.40189091295030       -1.29489416212079
H            0.17936820586652        2.31162916704300       -1.62359922963665
H           -0.45763960916354       -1.19624263380320        2.55596476415923
O            1.95020074547904       -2.93156528461111       -3.07793095175342
H            1.53372721143261       -2.10124211851317       -2.76365002727335
H            2.87591846831179       -2.85996482859120       -2.82426283003062
O           -3.82977192648283        0.18793424116705        0.30504519860905
H           -4.49967395306094        0.87701749472572        0.34649388992261
H           -4.18261962217579       -0.51441238819011       -0.24798623130790
O            4.10170933662745        1.48963115922225       -6.18414683670446
H            3.26114452814937        1.95562310076589       -6.23162194636294
H            3.92941151589487        0.65344556363178       -5.74028257800736
O           -1.20101272361528       -2.60466434882851        3.10439023098518
H           -1.11008410935530       -3.26814738023576        2.40026195940845
H           -2.11952188714838       -2.62457011141146        3.38727001366085
O           -0.16351941523504        1.92572619449355        3.59067471663601
H            0.47139549850384        2.10511557442298        4.28959243629660
H           -1.04326515530967        2.12029168512018        3.96048425002907
O           -0.92726477899882       -4.35687513690197        0.93815045507814
H           -0.08221420469305       -4.76414224713940        0.72645119809008
H           -1.42724501405695       -4.30262561531060        0.11888491366884
O           -2.68922610964148        2.39938880980601        4.65536539181760
H           -3.24477789759272        1.63892378623836        4.85475963300994
H           -3.24765739185544        3.06007378558875        4.23601482866559
