37
 energy: -59.867699461885 gnorm: 0.001386744414 xtb: 6.7.1 (edcfbbe)
N           -0.40231474560215        1.50193106278882        2.14230380037878
C           -0.25099566623625        0.18902850809625        1.49187748672763
C           -0.47891283292651        0.31883600375379       -0.01025120586760
C           -0.38282847093642       -1.02173368108864       -0.72546429890672
C           -0.93585977130461       -0.96932048829136       -2.16786507975425
O           -1.79960371860264       -0.11628922386016       -2.44707908807090
O           -0.49225338670441       -1.82691532514034       -2.97690042848989
H            0.34111538783658        2.16034417302501        1.85296105999167
H           -1.31743938034909        1.92272233222504        1.89605272055738
H           -0.98260895930652       -0.50508835166916        1.90761783233758
H            0.75026418177136       -0.19958585443461        1.68105648091149
H            0.25041834211757        1.00027098760650       -0.45203558037907
H           -1.47481701083018        0.71731338116919       -0.21416895132298
H           -0.98699038843957       -1.77175409049250       -0.20773872199023
H            0.64040946652527       -1.39491464458927       -0.77184631335993
H           -0.31986067309477        1.44804192753197        3.17773658638880
O            0.15663260653231        2.03555756286235        4.80314237381292
H            0.64113658036913        1.39254184309878        5.35190993330565
H           -0.55933442077854        2.37038685688819        5.35056739402518
O           -2.51257453904484       -2.04113844443540        2.79453071359759
H           -2.20850419877450       -2.82618489143081        3.25844294035724
H           -3.43812209529975       -2.18112194463991        2.57403226291823
O            1.52602198438207        0.20551599400343        6.36482185715641
H            1.35055378005838       -0.72612427193006        6.19895864842922
H            2.47999062916635        0.31007403851840        6.43013476947317
O            1.68623647806856       -3.33866809871999       -2.43529016713132
H            1.81729908426564       -3.87849535919590       -3.22072554212434
H            0.88781020736129       -2.79507154131281       -2.62576653654060
O            1.49381179886520        3.47882718279790        2.59826227221981
H            1.28383835146580        4.41616776138093        2.59999972656259
H            1.30652530740784        3.14820054007004        3.49009788055903
O           -2.83235641432740        2.73687672136467        1.41405966163080
H           -3.69336516830722        2.39250284650793        1.66708088812780
H           -2.90347265955158        3.06701345267615        0.51478857330201
O            2.92332058607492       -1.05127436268057        1.95964735690067
H            3.12584654849589       -1.96891639790778        1.76065002714878
H            3.65082917941978       -0.52129820455390        1.62167466713604
