37
 energy: -59.875135427990 gnorm: 0.003087207034 xtb: 6.7.1 (edcfbbe)
N            0.64492386565702       -0.36593859971764        1.31797608453266
C            0.40232519636160        0.99207582066232        0.80517940946632
C           -0.93601177274671        1.06926470091843        0.07008386801660
C           -1.19717802284216       -0.11055010229571       -0.87933525080025
C            0.00397803503184       -0.45443531476760       -1.77086306211979
O            0.02618788464454       -0.01199614010344       -2.94828169555006
O            0.90550460147229       -1.16876637208074       -1.28054572434003
H            1.47345318111914       -0.39250834219240        1.93911630516217
H           -0.17424607185636       -0.67418712496021        1.90353264932036
H            0.39100686565428        1.68990013872593        1.64238063922077
H            1.20952558152872        1.26052680730362        0.12158469999403
H           -0.96837546295580        1.99555328810524       -0.50466231973177
H           -1.75431317910024        1.09410519625089        0.79023243922125
H           -1.44518975565075       -1.00672858899905       -0.30776381585500
H           -2.04650114599759        0.13551665584230       -1.51753186107511
H            0.78511760659767       -0.98345598539074        0.49357030939468
O            2.38406851797897       -0.68106436609325        3.47418110481564
H            1.90400050612119       -1.47185339540426        3.77993672094298
H            3.32293771764928       -0.87590907628414        3.52066538615216
O            2.00125535290415       -1.00326097871849       -4.58989965512969
H            1.27368848967163       -0.66439255068459       -4.02512740515086
H            2.73208500246347       -1.17992617440113       -3.98516313033418
O           -1.29601154992758        2.26804133715333       -3.58321522654538
H           -0.81309050607051        1.44081939622690       -3.36599299565955
H           -1.01434237714139        2.50948295403641       -4.47147809051701
O           -1.13555726803868       -0.96494137558277        3.25959675231054
H           -0.61557168187655       -1.67064860172145        3.68075917006169
H           -0.85114167404705       -0.14424067542376        3.70453244647451
O            0.36527467854312        1.16026015181060        4.22028305508880
H            1.19360071084462        0.67306515129155        4.06935961151022
H            0.46164747813486        1.62482985147578        5.05447564262550
O            0.75867677061487       -2.84389122937314        4.26149199450199
H            0.69238389080546       -3.10826480973351        5.18429409839646
H            0.76067239910538       -3.64689107161328        3.73149665881760
O           -3.85293120021447        1.47837352017081       -2.79019833968578
H           -2.99436969848097        1.86462362456120       -3.04266729663871
H           -4.27792496596769        1.21934628091650       -3.61383217682165
