37
 energy: -59.878686791912 gnorm: 0.000953112764 xtb: 6.7.1 (edcfbbe)
N            0.01490152026308       -0.32464612881233        2.40460589391760
C            0.44046518722456       -0.29166431746489        0.99511108693883
C           -0.69427745532796        0.18655957786985        0.09360270340212
C           -0.26313633786162        0.20584074430108       -1.37188892189468
C           -1.46582164275872        0.47259879758340       -2.30330508914091
O           -1.48374970279317        1.53859616775044       -2.94839910468180
O           -2.35869474607796       -0.41270858098293       -2.35129576847219
H           -0.19016482776946        0.61118597960679        2.75531129612204
H           -0.84307248913459       -0.90758421288446        2.51608601101745
H            0.72594033108361       -1.29952398157920        0.69259041781137
H            1.30042728346187        0.36879852945714        0.88404261347677
H           -1.02291410968678        1.19083099772266        0.37037258801531
H           -1.54643351630819       -0.48902417034225        0.18253021083368
H            0.14785380909078       -0.76643780460636       -1.64780853439158
H            0.47881409845063        0.98326541494794       -1.55976019079072
H            0.74305743493414       -0.77648903486184        3.01125188961413
O            0.35543567104037       -3.40132613389017        0.06238652386367
H           -0.51663557758019       -3.18785441462331       -0.31481542682747
H            0.73875372473614       -4.07381970416504       -0.50575314701975
O            4.88910439009681       -1.52395166024240       -2.92080945754138
H            4.23636701262152       -1.50946689244929       -3.62701058319784
H            4.73511937987198       -0.74418143509928       -2.37853846571548
O           -2.03695305841032       -1.93129132459328        3.30608697739315
H           -2.99285658195991       -1.86480149411313        3.33355641529096
H           -1.69828518991258       -1.67516600169572        4.19303570805185
O           -2.09138242006862       -2.76916587362202       -1.08048425181877
H           -2.93669759460227       -3.21680375023060       -1.17111798661639
H           -2.17525727020589       -1.92252395929563       -1.57475896038958
O           -0.69842193278573       -1.16421640404997        5.54109803949116
H           -0.76483556206117       -1.59469361744355        6.39622682531724
H            0.18942413855098       -1.36906231389245        5.19656394818964
O            0.08140959806020       -3.71696909001583        2.79928106512319
H           -0.79007493622343       -3.30982310170740        2.94042782574876
H            0.22847986303913       -3.66771284354603        1.83628358792154
O            1.54698338728307       -1.87189674311555        4.02777432085749
H            2.48818384744222       -2.05753558510777        4.02191327668936
H            1.09252027442123       -2.65749463480625        3.62715866337722
