37
 energy: -59.868770212261 gnorm: 0.000266497893 xtb: 6.7.1 (edcfbbe)
N           -0.74414508396509        0.28241378378979        2.17969662416032
C           -0.35038212096398       -0.56332630992754        1.03137112493504
C           -0.10885832993307        0.31746067219207       -0.18740670175919
C            0.42628410199175       -0.46574463501537       -1.37736073136281
C            0.89187993141078        0.44252233544262       -2.52395098511869
O            0.89750446277076        1.67872906249849       -2.37893562481473
O            1.26396155609487       -0.13792004547917       -3.58140592073167
H           -0.04067006967960        1.06509817569936        2.29969082624388
H           -1.65020938790573        0.72374062485145        2.00178335830855
H           -1.12939958879452       -1.29576744453466        0.81893579004894
H            0.56890790889720       -1.09532889755016        1.27549683578820
H            0.62701241741912        1.08036747031006        0.05982334465591
H           -1.02611081178805        0.82424101127332       -0.49101830617126
H           -0.32000367924813       -1.14647810023158       -1.79209328101910
H            1.29391265989207       -1.07050943297186       -1.10099355844686
H           -0.79516447793244       -0.26083720387431        3.04463500949427
O            2.31096421667322        1.35248616044981       -5.66571797682052
H            2.00132939472279        0.94486192758436       -4.83110266950577
H            1.86303146456907        2.20141358180298       -5.72646767388300
O            0.96781340611721        2.38051765531952        2.35994663367822
H            1.01020316108564        2.83624261343915        1.50217282440002
H            1.86930786842638        2.32998049199898        2.69007333817790
O            1.22001742536200       -1.25684023061654       -6.17907419220533
H            1.79934097018185       -0.53760707967319       -6.47255858961338
H            1.01703728684013       -1.01816084665902       -5.26114528273380
O           -0.93105799532999       -1.53224449960740       -8.00242611050372
H           -0.25315459798402       -1.42614855324506       -7.31197126177726
H           -0.46028872736378       -1.82764730099340       -8.78848535805503
O            1.20190398869897        3.43815309593585       -0.23234736264538
H            1.13010834099843        2.86027229369156       -1.01332314993261
H            1.06697182721941        4.33498195277040       -0.55102504555904
O            2.57787854853405       -2.53662749768088       -2.91982209643521
H            2.16933335573868       -1.69635097639864       -3.19264702965991
H            2.70253124584629       -3.02816172988001       -3.75200320949304
O            2.50111521394664       -3.63677595399206       -5.51219651603394
H            1.87703947445367       -4.34701810505249       -5.69309858620093
H            2.08914864294230       -2.82119906571617       -5.85800148938902
