37
 energy: -59.879340252844 gnorm: 0.028242473259 xtb: 6.7.1 (edcfbbe)
N           -0.09794652967405        0.79235238364984        1.58057924117780
C           -0.26997091915999        0.88865674566723        0.11949946665699
C            0.94039125353932        0.31426314409476       -0.61193735588834
C            0.88107696076211        0.63974905360762       -2.09776300753475
C           -0.32437334223193        0.02647718933062       -2.84514749461324
O           -0.88752259956934       -0.97538158572945       -2.36840303625370
O           -0.63916393383071        0.58902046814499       -3.93312311865088
H            0.08157468471313       -0.17423520535830        1.85454175382916
H            0.70912644994891        1.40091374244626        1.88234158821951
H           -0.39156221050564        1.93730990583222       -0.15466901807398
H           -1.16121642647055        0.34378326371403       -0.19756064006659
H            0.96620769518092       -0.77131259410580       -0.49782971323370
H            1.86035077109868        0.74296962304286       -0.21220920079335
H            0.84109237390863        1.71526976564381       -2.25250220208831
H            1.76541544323035        0.25374330225324       -2.61352205327754
H           -0.94432138791693        1.13553847356748        2.09832257672673
O            0.14990850550003        2.82911285265150        4.57171233478849
H            0.48871934180935        2.26153607580091        5.28036041055908
H            0.82139332121982        2.82667089668346        3.87155033679343
O            3.66120248224990        2.21506247790574        0.15502122531965
H            4.34879392800791        2.20601598320759       -0.50123617254873
H            3.06797004040178        2.95710399915872       -0.05051474933459
O            1.67612132493749        4.26231779752950        0.19809807642616
H            0.85066839621985        4.10625891111129       -0.29374448910953
H            1.78733784719988        5.21817635595843        0.23689033970486
O           -0.17954445238584        3.21427645587492       -3.82256432959750
H            0.50630637469643        3.42102411455448       -4.43875925403707
H           -0.37963872195284        2.25841957746954       -3.97516092191897
O           -2.00285367972802        1.86342239687477        3.20518091434245
H           -1.32231913477502        2.26893856864801        3.78467388197897
H           -2.62114921114625        2.55832522780955        2.97026938907563
O            1.84178713091092        2.53441831973694        2.35363826297653
H            2.72290673095876        2.18180708393867        2.17758756472635
H            1.70645605300422        3.22073572808545        1.67114992302949
O           -0.69245730641241        3.92836929639201       -1.16131203566364
H           -1.51659721532321        4.42598048582049       -1.10147643401686
H           -0.57755203844887        3.69611871900410       -2.09988905968395
