34
 energy: -56.703874937650 gnorm: 0.011727207781 xtb: 6.7.1 (edcfbbe)
C            0.40008738888781       -0.44858854339687        0.96253351179536
C            1.49156514121411       -0.25392697718080        2.05181204586908
O            1.89895217841357       -1.29191669197222        2.60831928767801
O            1.89587300090819        0.90566807619306        2.29830095675386
C           -0.09588198006731        0.83288483615778        0.31019990357900
N           -1.14742819654847        0.52236273511236       -0.68430595372661
H            0.85028595091670       -1.12237569454724        0.22952370915474
H           -0.41054004270489       -0.98527931450406        1.46010751469829
H           -0.51217563229768        1.49936758299882        1.06375565649487
H            0.73369318836118        1.34342998369510       -0.18005238286550
H           -1.96815929622197        0.14224251966179       -0.20459747742035
H           -0.79823880378730       -0.16859162109833       -1.35300774478874
H           -1.45724537405381        1.37295112906110       -1.22079482366585
O           -3.37269768206677        2.18648640125200        1.88384875588950
H           -2.78763343128012        2.96220389784535        1.73841005220983
H           -3.49555986431917        2.14389577858376        2.83471952259757
O           -2.16500209409445        2.49023264252988       -2.27311484527711
H           -3.12259558277934        2.46635712531152       -2.34941043045294
H           -1.81065412579187        2.58754606318629       -3.17829294398004
O            1.56443343955883        3.64540562396917       -0.58869372889630
H            2.42057668923653        4.06466277862395       -0.70833171581531
H            1.41664647610394        3.59021724885150        0.37644852551322
O           -1.58159592683926        4.22016005861125        1.59593132069053
H           -1.45204461383291        4.50016058566111        0.66248175991104
H           -0.69063662950314        3.95741531836060        1.89561601848021
O           -0.97623888596005        4.66511202678375       -1.01221138463426
H           -0.04690683184570        4.36896301631481       -0.95256720906355
H           -1.44840916834726        3.92562035960778       -1.45066725332492
O           -1.07488502180001        2.96884465831353       -4.74663789976571
H           -0.12432486978700        2.79038300232848       -4.80770076873801
H           -1.23409559337212        3.83958779484212       -5.12620781373619
O            1.10561966722071        3.44545802464121        2.12480310229327
H            1.34853360802940        2.49695565347505        2.21262099411829
H            1.62671791846068        3.91095692075534        2.78394573841708
