34
 energy: -56.707647908014 gnorm: 0.000116831383 xtb: 6.7.1 (edcfbbe)
H            1.34476055991545       -1.33890667109462       -0.38229713325051
C            0.30833759662229       -1.05386275228293       -0.56224088277505
H            0.99654766731606       -0.35928848899318       -2.40427739702081
H           -0.26094001162145       -1.95060127659764       -0.80689105493316
N            0.27762180827321       -0.09261973153396       -1.68398208226545
H           -0.27587181894939       -1.12297240354301        1.51863950195003
C           -0.24508852999747       -0.40344393394657        0.70319698961715
O            0.79551116385156        1.69422254821258        0.25720032767542
C            0.65202764091701        0.78059414253510        1.11032679456908
H            0.51889027324405        0.83429585596997       -1.26673900838916
O            1.20400410314897        0.76152372113770        2.22929918118014
H           -0.64906533833528       -0.03574617296430       -2.10669336241397
H           -1.25254330667844       -0.02125779842212        0.53247393989423
O            2.29539177182712       -3.56167877434880        0.85452170332723
H            2.67791589643969       -4.31029190053475        1.32414446062549
H            2.14567918283040       -2.87808084060419        1.53480516281554
O            3.06949290786255        3.27314193327735        0.06305469390408
H            3.37542669987893        3.42319583571462        0.96185563024356
H            2.23793215644766        2.76522168811250        0.14736306251426
O           -0.06685694373134       -4.20139489256850       -0.60606546638522
H            0.13810417097006       -4.97418541593191       -1.14020855337885
H            0.72669553473660       -4.01434132683235       -0.07599341429036
O            2.31662475863026       -0.92571576624018       -3.27234506880644
H            2.95466666155812       -0.22571873097887       -3.44166671904461
H            2.74395913038512       -1.53082198208284       -2.62986175283950
O            2.03235858363065       -1.73056877823712        2.90428358524703
H            2.68439067952068       -1.64559177874574        3.60625933694294
H            1.72792563067273       -0.81857444097075        2.71207174991656
O            3.53956401485417       -2.52771059204906       -1.43244331718496
H            3.10713688799178       -2.87330015603302       -0.63073335469416
H            4.11444670372456       -3.22756528770103       -1.75533925339671
O            1.58311457241828       -2.39265113387390       -5.58243800170491
H            0.85083799355899       -2.93766833905902       -5.27888731236872
H            1.85457519810833       -1.85956635879536       -4.81335398528466
