37
 energy: -59.883368804838 gnorm: 0.000252619423 xtb: 6.7.1 (edcfbbe)
N           -0.62139646936338        0.48587904817405        2.19069001147659
C           -0.49438961849495       -0.35443552841860        0.98475791750433
C            0.15836680775227        0.47014361458763       -0.11667358270907
C            0.32140443514989       -0.27734724077102       -1.43213726115134
C            0.80246022830682        0.65000002741353       -2.56904035049965
O            0.51202921031051        1.87720682902127       -2.48717006549865
O            1.42144363526934        0.13893231127550       -3.51703925700338
H            0.30790720227335        0.67324886500745        2.62843300872007
H           -0.98025868095895        1.44253875926685        1.92559319029253
H           -1.48307584321472       -0.67832994757111        0.65699123786800
H            0.10739737820990       -1.23702649567317        1.20295870929744
H            1.14223581484895        0.81313221751761        0.20579900654994
H           -0.46545815784504        1.33964604030940       -0.32032339990088
H           -0.63477013011474       -0.68828978866250       -1.77042395601914
H            1.03512395219262       -1.09975796037323       -1.36499309979113
H           -1.23613864260693        0.06499965354568        2.88665563943158
O            2.83585862776318        2.29036285443546        1.15095931497257
H            2.43202501534343        2.05871429704772        2.00928870628689
H            2.17598330433765        2.83581607605309        0.69205839508489
O            0.80027824302764        3.63152747173139       -0.35026839046893
H            0.74379011981381        3.02072093757870       -1.10920615188398
H            0.95755612765888        4.50583303209062       -0.71788370458232
O            1.55022151000428        1.49898636110190        3.52286812197833
H            2.02838257260612        1.18919620162119        4.29528316356796
H            0.98959333211784        2.25642391114711        3.81243914787498
O           -3.29775704425906        3.32559809663220       -0.14262885375346
H           -4.14460199712006        2.87128166634148       -0.12186256718341
H           -2.88211541429420        3.09145326099725       -0.99358699858142
O           -1.18409098752251        3.07167572944264        1.55083319610304
H           -0.46212406987493        3.29893569863275        0.93689089827735
H           -2.00779301300419        3.24700098968705        1.05694758023316
O           -2.09743778902051        2.60497013497297       -2.52185819206770
H           -2.20385106076393        3.13534686793613       -3.31656258829027
H           -1.15750160121335        2.33135198204610       -2.50826038724010
O           -0.16004620155936        3.50429390154831        4.06988968484969
H           -0.65098268378726        3.46185926035056        3.22575762244395
H            0.14001688800417        4.41135186393472        4.16506225384795
