34
 energy: -56.698347068657 gnorm: 0.000735752401 xtb: 6.7.1 (edcfbbe)
H            1.73051339488872       -0.26241909692911       -0.29415659889895
C            0.84556016758760       -0.86609699139613       -0.49517659804037
H            0.84148694053090       -0.16405341929688       -2.47803050159935
H            1.14839761441150       -1.90063340305603       -0.66314924420742
N            0.17480990059024       -0.32686527095677       -1.69683815163378
H            0.41067669417499       -1.14458610417617        1.59532315096490
C           -0.09374186522728       -0.78166494313808        0.70132689501709
O           -0.68332248272610        1.45234851277041        0.02312561403001
C           -0.60644652051438        0.64877036881375        0.98601087296738
H           -0.24608922210913        0.57700356981201       -1.35333479962352
O           -0.95380253255626        0.91740480837411        2.15604770703164
H           -0.57003395962042       -0.95074736416182       -2.00688197921576
H           -0.98096218465918       -1.39868121402980        0.54105413883856
O           -0.87068170543081       -1.03244430779154        4.06100187639695
H           -0.93727491366313       -0.27158274517187        3.44420724285427
H           -1.34170039608356       -1.76614537479514        3.61623408447386
O           -2.16336665734580       -3.21847778817865        2.90937517127439
H           -1.54176128519091       -3.94767483709508        2.81581763084683
H           -2.46665841379080       -2.99692811023335        2.00835360339555
O            1.64126397705332       -4.04363293770731       -0.94217809779381
H            2.33191066166306       -4.31994321861593       -0.33352570996115
H            1.04476845175837       -4.79030397799344       -1.04961886022515
O           -3.18684179359330       -2.33662750568228        5.52978575146893
H           -2.48568348694283       -1.67316718425341        5.52692370377418
H           -3.07695962802006       -2.80828959531507        4.69160020705022
O            1.73062783634597       -1.79608948517325        3.65734482126504
H            2.31520994552207       -1.30953369284505        4.24379434982967
H            0.82041126996403       -1.53503392827855        3.91262382160463
O           -3.08684470049140       -2.60627788287955        0.35497552323856
H           -3.82940310443801       -1.99968386956826        0.42647578325276
H           -3.38748163939177       -3.35810367546597       -0.16916934142121
O            1.98932733172436        0.10322312337617       -3.75083096439870
H            2.67065334812125       -0.54010580398819       -3.96831043719339
H            2.35758195746738        0.98065434505722       -3.88686666529527
