37
 energy: -59.872675280807 gnorm: 0.000354908534 xtb: 6.7.1 (edcfbbe)
N            0.51707067218213       -0.25932958955709        2.13725428327932
C            0.12448478994889       -0.90942846391359        0.87285689437044
C            0.14087949973882        0.08359645728681       -0.28345455069293
C           -0.23314452064397       -0.61792997855395       -1.58248379641077
C            0.09364615098521        0.19389721303738       -2.84502003019746
O            0.26501458661847        1.41977522725489       -2.77041310982104
O            0.16992887278541       -0.47489840529961       -3.92265392001163
H            1.47242494797489        0.09196086550370        2.06562164626550
H           -0.11161136404477        0.54373652916925        2.33258813616992
H           -0.87734856746501       -1.32339724062987        0.98137816794031
H            0.81914141981088       -1.71956156257858        0.64616520259309
H            1.13755461776902        0.51197565769020       -0.41018965215933
H           -0.55186814466852        0.90693333993334       -0.10652051000150
H           -1.30279360198585       -0.83349864954081       -1.62735556476222
H            0.29737908381755       -1.56694997780945       -1.66659255624335
H            0.45411864136961       -0.94289661507955        2.94064568032558
O           -1.13592143738727        1.93948820736942        2.65805724502613
H           -0.80432225876263        2.83604858966802        2.75345848612777
H           -1.87200564964217        1.83359356237130        3.26811039203166
O           -1.90618585688514       -2.28105901098302       -4.06696534771922
H           -1.50424821542804       -3.10131299310041       -4.37238342202378
H           -1.18870667974279       -1.61773742881253       -4.08277186914183
O            1.91260145670904       -2.53785487038458       -3.63091767722823
H            1.28387150463232       -1.79898391438116       -3.77183565903093
H            2.50912051963190       -2.52234295866254       -4.38577455706842
O            0.32624453809128       -2.08767580727869        4.11738626961120
H            1.11417506833205       -2.55175492882889        4.41279317659933
H           -0.26254591958345       -2.76094982194793        3.71738162236681
O           -2.92094465347054       -2.49620744474506        1.07469088322981
H           -3.23792395317163       -2.95331247124045        0.29104583591247
H           -3.66928507734783       -2.01843932289645        1.44653834045230
O           -1.14154297561701       -3.89882733933916        2.71223197817424
H           -0.65844306671333       -4.46627430028895        2.10486399338879
H           -1.78953417983170       -3.41356457271846        2.17078615358177
O            2.40723930939234       -2.92619714882060       -0.83090909697116
H            2.24181585331731       -2.84161575419145       -1.78197407114628
H            3.30994158926694       -3.24700407770798       -0.74355399681520
