37
 energy: -59.871684378853 gnorm: 0.000288799709 xtb: 6.7.1 (edcfbbe)
N            1.38422614151066        0.02475645990634        1.32098155852774
C            0.46968691493820        1.14746671126580        1.03419500778101
C           -0.94767650802837        0.62597586648603        0.82141262800740
C           -1.22551670338105        0.10386852969638       -0.59224782421528
C           -0.68928249719385       -1.29453936392905       -0.94917020363464
O           -1.38656011653295       -1.97707994465334       -1.73438295919400
O            0.40363594614705       -1.68376631854307       -0.47370419943203
H            1.21221234100635       -0.34100072904998        2.28701677804606
H            1.15113746184470       -0.74227520537598        0.63095384523569
H            0.48149436526462        1.84945214001651        1.86931123725114
H            0.80405148642095        1.66645968241681        0.13534512827372
H           -1.64641618292797        1.43928196850858        1.01549865774297
H           -1.15304286073037       -0.16213314044390        1.54622712181041
H           -0.80460226067301        0.78576704524979       -1.33713978133333
H           -2.30154795764277        0.06040704516633       -0.77313666607691
H            2.36235094518431        0.29498508403456        1.23415025313651
O           -1.66859858113753       -1.51786626258787        4.57987632985574
H           -1.67367460408096       -1.96834335417746        5.43226638247656
H           -2.00676577421324       -2.17267806923167        3.94412810614253
O           -0.34651617631366       -4.51190018346541       -1.79158468906147
H           -0.78104556766713       -3.63143228297401       -1.84160943099918
H            0.50855113276265       -4.33755023702855       -1.38213253430465
O           -2.59423327478247       -3.56921299658220        2.95573056361879
H           -3.35252243817399       -3.54859137901730        2.36531481426545
H           -1.98954573872887       -4.23841955443660        2.62063201628819
O           -0.09383095899199        3.68334290298880        3.04425078422161
H           -1.01734729024658        3.39091806046249        2.93612870180350
H           -0.06185582871916        4.58831473764567        2.72351065899086
O           -2.72205416533147        2.79546706433466        2.66337919429462
H           -3.51845306192637        3.33360234121974        2.64473755841990
H           -2.90597269396950        2.06191510574849        3.28333912191739
O           -3.19087328021974        0.85193319079207        4.56129268264786
H           -2.67381790338312        0.02932621810740        4.48623930244001
H           -3.05449654000661        1.17492939575608        5.45777559514374
O            0.93191773985114       -0.78239715438758        3.90527829755028
H            0.00784638302336       -1.03031514651256        4.09292469284129
H            1.18334010707129       -0.13382522741428        4.56958326940714
