37
 energy: -59.877212056292 gnorm: 0.000695459685 xtb: 6.7.1 (edcfbbe)
N           -0.56586483836935        0.00809330443864        2.46331026518504
C            0.13201515833247       -0.61953064059510        1.32669901977669
C            0.09135871023842        0.25194987533564        0.07805096705282
C            0.65611138086516       -0.52412010704444       -1.10280870225458
C            0.77139709821169        0.28425811232669       -2.41033439233627
O            0.67563493947412        1.52319684348293       -2.37491086832636
O            0.97813518134201       -0.39370302888568       -3.45642005299270
H           -0.18964081862625        0.93756139959884        2.64896369672593
H           -1.58628620418862        0.09828101882706        2.23752489661621
H           -0.35876032468536       -1.56772386834851        1.10872613632542
H            1.16870305733486       -0.81273285072382        1.60164260133241
H            0.67410357613013        1.16665408402274        0.20138360682496
H           -0.93390148282154        0.54552340545450       -0.15084686976154
H            0.04278715069887       -1.39952330646257       -1.31585926783457
H            1.66915259806370       -0.87302203625290       -0.88472216452059
H           -0.42995312728241       -0.60255374827896        3.30593045710075
O           -3.07342434614393       -1.79452835052933       -0.27280325194500
H           -2.93987289174790       -1.67786601944529       -1.21493284322927
H           -2.51216469130380       -2.54924209307893       -0.00308470538709
O            1.10039939598110       -3.03649076651789       -3.08487921374747
H            1.11189621333977       -2.06214089275589       -3.25050676933982
H            0.57101965759215       -3.41479977758954       -3.79327720461683
O           -1.33686594512827       -3.79124835748810        0.48688134811816
H           -0.48432888676222       -3.88251453183823        0.02369669893645
H           -1.14230198242713       -3.99995331319787        1.40930294880596
O            1.26031431304583       -4.01234542227862       -0.48949108518280
H            1.63798343633343       -4.87866116992549       -0.67379929870994
H            1.24984819588541       -3.55717590107047       -1.34980235999524
O            0.08125109860920       -1.83385368819438        4.34241306304922
H           -0.53556852914709       -2.26625624580066        4.93895675716837
H            0.39856265094913       -2.51426693968346        3.72086745110575
O            0.85892816334608       -3.77594670469198        2.48910254494909
H            1.15716394590170       -3.61829145597470        1.58297692081778
H            1.41652226524691       -4.47483138730416        2.84134864518190
O           -3.17575789441023        0.12753664756567        1.67539732522201
H           -3.91774943167989       -0.09710918909958        2.24389029279306
H           -3.19342379215182       -0.50991189798096        0.93570840709639
