34
 energy: -56.698781665342 gnorm: 0.000165694892 xtb: 6.7.1 (edcfbbe)
H            0.23713416730678       -0.18204545917069       -0.01587399241022
C           -0.71015534766117       -0.27128097077779       -0.54932080149426
H            0.35085453052163       -0.50167242422045       -2.35236078009452
H           -1.09674132899839       -1.28569429472294       -0.42980597637062
N           -0.48029644717327        0.01044099322851       -1.97871406735227
H           -1.88435139551227        0.55572917285035        1.07813568031639
C           -1.69620448425629        0.74323750039242        0.02219235361196
O           -0.63211991521361        2.53210494335597       -1.18277414014978
C           -1.20603286266034        2.21149400189535       -0.11077035589241
H           -0.35336504709680        1.04819003866126       -2.02802583528207
O           -1.43288864328109        2.98012958820431        0.84157764420117
H           -1.30155638790455       -0.25698040257248       -2.54605724111251
H           -2.65093468792073        0.68672980582379       -0.50370380546998
O            3.57813644409985       -1.01763996383236        4.56646508457331
H            3.09977753651286       -0.17296612445631        4.58895246997469
H            3.48351698251669       -1.39707874859624        5.44565498562851
O            2.15352198851436        1.45844215594068        4.76887919189566
H            2.63035953618343        2.26988468852344        4.97017053732859
H            1.43994069273483        1.69360554246982        4.16778773318096
O           -2.49301211277633       -0.79518239583484       -3.83485735432371
H           -3.42177741147241       -0.90142433769562       -3.60890388098411
H           -2.44296608719558       -0.19141535243153       -4.58315384260745
O           -1.18553062149991       -3.06366143839939        4.57130788602601
H           -1.12132139005652       -2.15101203237173        4.86885137722486
H           -0.55631943961167       -3.16584605976983        3.84965507541006
O           -0.85699150850747       -3.06739047016357       -3.67532914646518
H           -1.44123123020587       -2.29566084378742       -3.79162570289261
H           -1.04624106226894       -3.67116515007852       -4.39912877360256
O           -1.48260064050079       -3.40023023983863       -0.95421251171053
H           -1.18163891597293       -4.24715717413757       -0.61684456467748
H           -1.24727509798067       -3.38014958507345       -1.89980235033272
O            1.43258410051743       -1.62405586530052       -3.05968903909245
H            0.75248389470373       -2.26332737143686       -3.34619597025509
H            2.07104319205526       -2.10973672677567       -2.53174788666585
