37
 energy: -59.882240166098 gnorm: 0.001357886305 xtb: 6.7.1 (edcfbbe)
N            0.86564164118408       -0.24034179977560        1.49601456955398
C           -0.07642632865449       -0.99261450271077        0.65115434997581
C           -0.61651660580063       -0.12847080708029       -0.48650697232363
C           -1.79403248541821       -0.81199817587876       -1.18371219751904
C           -2.21253029008828        0.00784408314330       -2.41454896185703
O           -3.11120278963091        0.85669474428884       -2.29315056558323
O           -1.58677945056182       -0.21804497063905       -3.48953994327437
H            1.71074651773029        0.05644152137530        0.95701783065920
H            0.41400738032011        0.59320424160272        1.87366290257293
H           -0.90822301027873       -1.34303276629348        1.26264667926368
H            0.43781848710774       -1.85376761204468        0.22509150792333
H            0.16192301953256        0.05123958906797       -1.22893539562087
H           -0.96397016816615        0.83818733593815       -0.11510958100136
H           -2.65357384992162       -0.87632597917606       -0.51523562603789
H           -1.50987748750168       -1.81021058651956       -1.51650413891461
H            1.20766525411902       -0.82928269923405        2.30573871294486
O            3.96427130452614        0.21311166347521        3.08018426557890
H            4.02265248962449        1.09111126607797        3.46518738102720
H            3.83748519501463        0.33639109691875        2.12036615892697
O            1.96564224509933       -1.56567571815743        3.56954155827795
H            2.28503589765682       -2.46520242964086        3.46022965447130
H            2.75675480867987       -0.98624829282028        3.56625268001150
O            3.27096290446949        0.51984691752583        0.38980170458357
H            3.56463307922455       -0.24149985871493       -0.16050755052758
H            3.40920867507681        1.30623199908235       -0.14382524042627
O            1.59934743493271       -2.97316558425101       -1.38855126430409
H            1.60479997934121       -3.93315741998441       -1.45274594357976
H            1.10251168046474       -2.65824568307914       -2.16481089524256
O            0.18256869874686       -2.25159892172110       -3.63928252413700
H           -0.47088960276867       -1.51911749307227       -3.58736439121122
H            0.54179697264799       -2.21375246685872       -4.53039418315190
O           -2.35918049253381        1.59092362304228       -5.40785785790199
H           -3.04609795728202        2.07577476149271       -4.93873172159163
H           -2.05128504999565        0.91465208576456       -4.76573355213994
O            3.95249764413090       -1.58634122035986       -1.12183380111365
H            3.11713117177237       -2.07841353696149       -1.25932924713474
H            4.60282208720887       -2.22840740384720       -0.82325940120619
