22
 energy: -34.406378713850 gnorm: 0.000165820219 xtb: 6.7.1 (edcfbbe)
N            1.37692528133508       -0.61624092011835        0.29464962474101
C            2.79574683017688       -0.21860629030940        0.15719455680407
C            2.96752685389732        0.73449807713648       -1.01952646437787
C            4.41708795980052        1.17102182110900       -1.18623018181789
C            4.59507590915403        2.23476340473668       -2.29668369466073
O            3.56219718868867        2.78977528881070       -2.74290472814202
O            5.76160322323654        2.47788331140321       -2.66543940250574
H            0.77745618401612        0.23563671428050        0.41266566693058
H            1.06342473082195       -1.09949150818086       -0.55179240409789
H            3.41371752697917       -1.10335101610721        0.00193081315661
H            3.11905875076229        0.27715414132049        1.07190926928428
H            2.36721866780254        1.63452986405576       -0.88207000048765
H            2.64786849060857        0.26766985584918       -1.95256741736877
H            5.07305223205037        0.33656040822982       -1.44054249951143
H            4.80163204891813        1.62840408325075       -0.27126720541878
H            1.24153311361057       -1.22797583790417        1.10424611831926
O           -0.24589363996299        1.58404188930765        0.57266822934277
H           -0.20665395072335        2.24612553944710        1.26819556063579
H           -0.73232532052677        1.96073012199934       -0.16516475501821
O            4.13293110766267        4.62358520740626       -4.67541679976401
H            3.85630010098850        3.97707507481068       -3.98450980955673
H            5.09154065799593        4.54541590460464       -4.70836726797971
