79
 energy: -131.171177087088 gnorm: 0.000290255240 xtb: 6.7.1 (edcfbbe)
N           -0.25177414321755        0.70413762218819        1.52989551865759
C           -0.30291008215604        0.14604410490426        0.16703039240380
C            0.04376044632024        1.22448109767895       -0.84412775949596
C            0.02757991666053        0.71792111300800       -2.27575491838102
C            0.45105550466512        1.78423915671876       -3.26884832352162
O            0.62605675194400        2.96909213953492       -2.87004567563482
O            0.60316728159149        1.44868091197011       -4.47375916951198
H            0.56535936251872        1.35073672637891        1.62882882756589
H           -1.08844489478034        1.26321976031405        1.78953635903555
H           -1.29581489516918       -0.24650886724220       -0.04229084002318
H            0.41169309488370       -0.67190727185389        0.08566260523084
H            1.04425028944825        1.60358725236709       -0.64186316098904
H           -0.66887931502777        2.04099997239664       -0.76319480668755
H           -0.96730351406366        0.38318847566380       -2.57821592295504
H            0.70595334611236       -0.12644334600588       -2.41293831594752
H           -0.14581024525606       -0.04361113892688        2.21895654409823
O           -3.45732290217871        4.12683083743040       -1.78744181736212
H           -4.24931137786935        4.66690808643632       -1.85524900172315
H           -3.74496686589916        3.19191596013047       -1.88299667439485
O           -3.28741381508638        1.15945240510490        0.70733250401408
H           -2.68385500689225        1.92992378169539        0.64304805572584
H           -3.90189561709831        1.42588174076651        1.39956185540411
O           -2.89349043917874        0.40612496287262       -4.02409902970704
H           -2.67136486890758        1.14393958662605       -4.61746568899946
H           -3.35438744892804        0.80581109456802       -3.26206830434209
O           -0.03522911915298       -2.40184109290976        1.85666331569946
H           -0.92669678068706       -2.01899554203098        1.96982873716846
H           -0.07935903730728       -3.29822028879195        2.19224183570110
O            3.43017651902744        1.50696193652062       -4.44593278661648
H            3.50475755774991        2.46865167918883       -4.30220049808666
H            2.51003925442925        1.37708110492634       -4.72660826432269
O            2.78931302657896        4.18688134116043       -4.01300250737194
H            2.51787622192993        4.77537438338995       -4.72352425422299
H            1.96322862336216        3.80824904919526       -3.64313231417627
O            2.32559731043139       -1.02154574842969        2.46373170797315
H            1.58550973510396       -1.56657386005254        2.14275021053156
H            2.65249179348686       -0.51366661665211        1.70114990488718
O           -0.59510678675523       -1.06656806958256       -4.98230087258169
H           -0.09037393006528       -0.23878214401917       -4.89064654272214
H           -1.49753565686682       -0.83027453378621       -4.71803757810279
O            1.80654710581942        2.51758902399242        1.75344678729567
H            1.53112761632795        3.19578500057193        1.11703947042342
H            2.49715198570615        1.99031898960896        1.31477003742204
O           -2.46490412029552       -1.12109858627814        2.30817160094811
H           -2.69317170492686       -0.34680231621270        1.76047365319974
H           -3.26918492118368       -1.63604374315667        2.39633125585350
O           -1.89597096360736        3.55212336914930        0.46473436497018
H           -2.40506768815399        3.91750384978274       -0.27533631331162
H           -0.97935251328802        3.83843085358749        0.32622247715520
O            0.77211422537122        4.23558939236765       -0.32058647374950
H            1.07898068749487        5.13361493162391       -0.46749680608473
H            0.76974746446159        3.79725863643005       -1.19020677014906
O            3.39783127261565       -0.09579059865531       -2.19207472092510
H            3.47177612252575        0.50022194697601       -2.96052136419406
H            3.78773669033995       -0.93090499598097       -2.46654034941348
O           -2.09120708305135        2.81819668538773       -8.35639200536681
H           -2.00938900031566        2.75645068247094       -7.38709507533885
H           -2.13510779283587        1.90994270793581       -8.67074090972108
O           -1.55425527569618        4.45307856181943       -3.74203240304750
H           -2.22995990367598        4.38986174944230       -3.03390587019825
H           -0.75977270450980        4.02431000687111       -3.37860978337166
O            1.18197009529575        0.77530044808364        4.13268784629826
H            1.68448183659692        0.07765634401486        3.65862723280619
H            1.43429615815494        1.60004632682355        3.70002848442796
O           -1.45437778917715        0.17750260374180        4.65607107384656
H           -1.68601702209079       -0.46973563619512        3.96767089297542
H           -0.48860841385800        0.32031447822597        4.59051598157930
O           -1.77506807261907        2.47349569926847       -5.58266264545956
H           -1.81069337472139        3.29223131970845       -5.03651833883966
H           -0.88825335666334        2.11044643357055       -5.41936783017806
O           -4.21466098132040        1.51165706421180       -1.80548856747040
H           -3.86219699615302        1.26821692172153       -0.91412209335648
H           -5.13818144014169        1.24506533212722       -1.81379708387360
O            3.44418018736118        0.66190533574273        0.47148405518842
H            3.32662647431554        0.42892924383641       -0.46679433748112
H            4.39294371388854        0.70320140348488        0.61564987474667
O           -2.20422585221646        2.14572442259856        2.98830800244190
H           -2.01784832932000        1.53598216868803        3.73555317432826
H           -1.89960823707990        3.01468861410144        3.24932344145442
