88
 energy: -146.454037605412 gnorm: 0.000385126175 xtb: 6.7.1 (edcfbbe)
N           -0.19807988763776        0.30667015529024        1.38863082870281
C           -0.15462637020291       -0.25593904756622        0.02938657595361
C            0.15383312911300        0.83971367982345       -0.98028962443019
C            0.24043018598464        0.30024450751631       -2.39936625082171
C            0.74008488783118        1.32117367585061       -3.40592327739420
O            0.99862545320395        2.49630651216340       -3.03363523616124
O            0.85002283539819        0.95727748797509       -4.60581472206710
H            0.56288016574305        1.00933486224256        1.51458057084948
H           -1.08546368161021        0.79811400472632        1.58773614652395
H           -1.10659059000824       -0.73000557963877       -0.20485794878889
H            0.63362561395059       -1.00711708603198       -0.02754849732358
H            1.12004593069350        1.27813575353061       -0.73537616532793
H           -0.61054940004104        1.61295721722008       -0.94499467480174
H           -0.73323068409638       -0.03755237485359       -2.76337350957263
H            0.91881916274128       -0.55462148064168       -2.45396274461910
H           -0.07673840099304       -0.44853152138528        2.08415377115069
O           -2.97266065977198        4.44259652523322       -2.30181632646194
H           -3.64054278162528        5.13094362768521       -2.36064171626800
H           -3.43193732643732        3.59072247553451       -2.46710516872758
O           -3.51325741446796        1.59452394574367        0.00103000502218
H           -2.72731054952446        2.17079620194421       -0.02909711806176
H           -4.10565071358179        2.04104149083026        0.63637315402690
O           -2.66223178680043        0.48732114215800       -4.24194144409817
H           -2.34267152315776        1.12374657193540       -4.90608827249700
H           -3.24234394621372        1.00349152571619       -3.65091241993814
O            0.23048281657113       -1.69966707689331        3.32599456506124
H           -0.06567691393874       -2.61069386881080        3.29206542327438
H           -0.44368134861403       -1.19157326196154        3.85092660459285
O            2.15531857709015        2.20958234487069       -6.72751011784258
H            2.25201800269554        3.08421683752198       -6.30763931473521
H            1.80550689871921        1.64342165837047       -6.01499047369658
O            2.01874069032111        4.31207867118274       -4.88118398374144
H            1.22149532667270        4.84530211446232       -4.98763929644006
H            1.76780330179354        3.61975391426309       -4.23508201808808
O            2.74125527770399       -0.85032358867317        3.80360885687012
H            1.82061718495657       -1.14705491214880        3.61819411751550
H            3.22104399222977       -1.63422326185799        4.08335348478002
O           -0.64572332824638       -1.24840279632430       -5.37278471360661
H           -0.01253218886598       -0.54097059438589       -5.14461453394720
H           -1.50150555146674       -0.91826003648002       -5.06009551130847
O            1.66238293182144        2.32189661332094        1.72378967949872
H            1.57597290465473        2.90820363439926        0.95750250803222
H            2.47904185690866        1.80246666475986        1.60788816415458
O           -3.00131644779580       -0.42202023236311        1.83499219538092
H           -3.17914986096442        0.27433330597531        1.17245213427774
H           -3.68458285695758       -1.08327300051766        1.72292154298838
O           -1.50934429757003        3.59693192289423       -0.07451145358183
H           -1.97459147549482        4.05231203125595       -0.79327750271358
H           -0.55908789960719        3.74102832791773       -0.22788292907720
O            1.21607604110292        3.87037634347507       -0.63112184168562
H            1.63383288757803        4.71285871456423       -0.82637080623674
H            1.19611217620424        3.36799429388329       -1.46730508725689
O            2.93940460129894       -1.24331745094045       -0.49903099243807
H            3.74467498729072       -1.55258441753613       -0.91705610781844
H            3.21174813083805       -0.61268204427146        0.19559896999474
O           -0.05166354401676        1.55552767283532       -8.34272045691575
H           -0.68207450228759        1.86679866609654       -7.67165945336488
H            0.82369129649048        1.76696727284133       -7.96905540103043
O           -0.88636511637525        4.30492443592334       -4.08588790286836
H           -1.63668050264785        4.43105656339223       -3.47031868746302
H           -0.27897869313830        3.70156659727763       -3.62477617951481
O            0.17875105814596        2.12909497252400        4.09963543366160
H            0.74571231074157        2.27394047515405        3.32044229688503
H            0.79314423294641        1.86035083790457        4.80246261441304
O            2.25276056331206        1.15650414234099        5.64644972134494
H            2.45958585725645        0.43473520978965        5.01773751981891
H            3.07586700703670        1.62125582909525        5.81327528513714
O           -1.59581886059356       -0.07425227837657        4.28459485260010
H           -2.17314740637468       -0.04778996609375        3.50038531634753
H           -1.08197566079563        0.75478667855951        4.26675099482910
O           -4.64920624534988        2.78670697033697        2.19891154104849
H           -5.15680742850180        2.41448706247379        2.92297190698785
H           -3.70312109394852        2.70180339330317        2.45325970880113
O           -1.27581427882089        2.26754867787654       -5.87506340017175
H           -1.24919039171254        3.12542235926270       -5.40037186082828
H           -0.47858545181267        1.79777202964897       -5.57310887252848
O           -4.23965870996663        2.03494744489885       -2.52264034725764
H           -4.01242369478795        1.75457395001123       -1.59853021001629
H           -5.18811322900520        1.91525977340605       -2.61922436610924
O            3.67245006063250        0.45862611716087        1.61138838866498
H            3.31751000869971       -0.02543095470720        2.39227472286649
H            4.59912573777440        0.62980899781687        1.79490892328749
O           -1.96670066853973        2.37417095763090        2.37036629738553
H           -1.34055347673373        2.53491549666236        3.08951154849939
H           -1.70853668544484        2.96346297341840        1.64443864152057
O           -0.50380611735339       -1.24929002018650       -8.20807518455975
H           -0.54258545273007       -1.34805591680061       -7.23894922894627
H           -0.33910197403137       -0.30083414867531       -8.36157207334282
