34
 energy: -56.713177347903 gnorm: 0.000831760363 xtb: 6.7.1 (edcfbbe)
H            0.78817630020447       -0.99865176089760        2.51762908632549
C            0.11953585367982       -1.18633486815114        1.67608790361401
H            1.81369645216694       -1.61683171355784        0.54130607320572
H           -0.31136301425989       -2.18151330795235        1.77908301692747
N            0.90480121527617       -1.10942435450712        0.43004560243571
H           -1.61196729688734       -0.22740703113436        2.55716551449496
C           -0.99422829106380       -0.14365673659319        1.66440587659682
O            0.48533125120823        1.52013288620643        0.78554696564258
C           -0.45707890036600        1.29644978280286        1.58441173857816
H            1.06653347996475       -0.09508019649637        0.27143937519069
O           -0.99437328549175        2.16924558146800        2.30154775529895
H            0.37153070135276       -1.49287001583245       -0.37193914772621
H           -1.63414112671391       -0.28835978979037        0.79063738401022
O           -2.48583572702253        1.27187766758626        4.44587808258215
H           -1.96938895395423        1.65494204316122        3.70890410380207
H           -2.88425366404219        2.02023650017154        4.89975894667010
O            1.52431323447743        3.95249952453234        0.07747094935236
H            1.12809859785549        3.08067175361144        0.29339912075901
H            2.47302088761281        3.84657137651874        0.20724371406772
O           -0.54192334731008       -2.16613515882737       -1.72729773037036
H           -0.56798745133055       -1.67469874460967       -2.55337458923707
H           -0.43341807708245       -3.09736187003958       -1.94631315426313
O           -0.16556048941740        4.86793368793560        2.16627612442056
H            0.42072031111295        4.80609612147580        1.39237607036927
H           -0.50812514035398        3.96107173903392        2.27906725019807
O            3.25800442005974       -2.32466052168485        1.09798032827323
H            3.19406631944663       -2.03945778666569        2.02766077520431
H            4.10509640662922       -2.01033951292819        0.77051882234919
O            1.75527862236853       -2.66273620749287        5.72609426643057
H            0.98743554187935       -2.28578927255741        6.16641054591403
H            1.59901153534654       -3.60881894114635        5.63898470959558
O            2.85537106935608       -1.21456011420199        3.61011505144958
H            2.53680813890292       -1.74304486389812        4.36234539928835
H            3.32061842629377       -0.46189289547397        3.98461606854679
