37
 energy: -59.882547582102 gnorm: 0.004395437426 xtb: 6.7.1 (edcfbbe)
N           -0.86792442118224       -0.46981296654080        1.24704007710283
C            0.25739343831716        0.48265022907941        1.30583617778095
C            0.46447701744124        1.17481299710083       -0.03930720887690
C            1.20182834651917        0.31776786899626       -1.07424032499633
C            0.35647631402213       -0.68151288257834       -1.88646553453112
O            0.77821040039466       -1.00844218439722       -3.00955963519558
O           -0.69801959304963       -1.13853150912170       -1.36676131159389
H           -0.72541715869450       -1.26762065030299        1.89410823428952
H           -1.77331627745501       -0.01156099941598        1.47179681025040
H            0.05319803868118        1.22913222778568        2.07336352762935
H            1.16520211719666       -0.05922147194703        1.57372598085898
H            1.06082327928485        2.07253473252166        0.12315519025303
H           -0.49875093180210        1.48243993893396       -0.44975829375055
H            1.97824459753623       -0.27764071402936       -0.58558445160435
H            1.69995049216480        0.94885128828726       -1.81378844738175
H           -0.91466497284752       -0.84302663722272        0.27070738815588
O           -2.13418717333330        1.88592155598278        4.40613939628950
H           -2.03517140886703        1.36465687467538        5.20843965429445
H           -1.24688281946711        2.22052469945070        4.18463101091167
O           -3.18677616307252        0.75318521878942        2.14141461603960
H           -3.72161577451577        1.41343906968310        1.69525640595195
H           -2.88669718177852        1.15804786333147        2.98065181938942
O           -1.68412047482863       -3.64989908331618       -1.53004248982305
H           -1.38444270520210       -2.71506091361891       -1.56475213543445
H           -1.08833395789411       -4.13995757039378       -2.10269517812916
O           -2.13388969401769       -4.18648927287071        1.12944468132783
H           -3.08217875494872       -4.05400994580055        1.22970701660813
H           -1.94530060906762       -4.03978643897920        0.18249764014771
O            2.18132023279331       -1.93057617307688        2.37551987374380
H            2.81895548048886       -2.64460234425803        2.48383189311333
H            1.30545031894174       -2.32200182345660        2.53665827908216
O            0.46126175990923        2.77526323046249        3.82708956712991
H            1.24212161145192        2.42634173013455        4.27038307057478
H            0.60433590727158        3.71743120029982        3.69958044829384
O           -0.49780004955986       -2.77755098869424        2.77882539174137
H           -0.99190269813282       -3.36713721898884        2.17228438752072
H           -0.90810053271987       -2.87553593638720        3.64342847273778
