37
 energy: -59.865654938099 gnorm: 0.003291712688 xtb: 6.7.1 (edcfbbe)
N            1.14255844340195       -1.09937899016589        0.48806576802901
C            1.10067394262589        0.36448833533502        0.34199507594853
C           -0.33542966635170        0.87252527456064        0.45777849882369
C           -1.18016204213342        0.69577034224507       -0.81070242637124
C           -1.80669152273633       -0.68850494239121       -1.06289537777770
O           -2.92643293248707       -0.72846122644705       -1.59892611348285
O           -1.14162442291421       -1.71593797941276       -0.74884668997767
H            1.01281979871726       -1.36608175136135        1.48037055660634
H            0.32274517624376       -1.48795337884647       -0.04744136358674
H            1.71275186180886        0.81851511921444        1.12161822169456
H            1.50900665111170        0.64172614174527       -0.63063595034542
H           -0.31067048858482        1.94052362363625        0.67586041365758
H           -0.82785312514945        0.37434871551502        1.29435710972908
H           -0.57891581976595        0.91982633044851       -1.69686447446497
H           -2.01040486013318        1.40480476560221       -0.80188137424827
H            2.02524493530203       -1.51556212821212        0.13243259173404
O            1.39666379889623       -1.93181728427756       -5.73614330772883
H            1.19730110843142       -2.43522766347700       -6.53290923772269
H            0.62429997632985       -1.99273045237691       -5.16391779957961
O            0.75243623797910       -1.73768570664142        3.19134336770025
H            0.14953924911544       -2.45899082868161        3.39131345926643
H            1.45155081614422       -1.75710126295012        3.85246261936727
O            3.41947126645284       -2.35130370208242       -0.52077953973318
H            3.61888930012578       -3.18310985244584       -0.07934918372083
H            3.40606087117103       -2.52359145704435       -1.46710434869977
O           -3.62322891916743        3.30951951556513       -0.53076910973641
H           -3.97121328245343        3.64754029674588       -1.36156889184947
H           -4.37464978243920        3.18204517400528        0.05545815756576
O           -1.74595988730655       -4.36942342523111       -0.95934665106401
H           -1.54230100904972       -3.40944244367444       -0.92671089379256
H           -2.70263643103966       -4.43804611168905       -0.88300547786944
O           -0.01820005829072       -6.14000509540479        0.37575069507696
H           -0.57735022566661       -5.46644388978924       -0.05281884594175
H           -0.13313952218957       -6.94034854390248       -0.14327402439705
O           -1.56565039716256        0.69279696678748        6.53763163162935
H           -2.01711640841582        0.99940977657567        5.74508930937602
H           -1.41209863022030        1.46423473748863        7.09340260619173
