37
 energy: -59.876740384511 gnorm: 0.000313114615 xtb: 6.7.1 (edcfbbe)
N           -0.29459142159842       -0.82189712840074        1.21639881980572
C            0.69823577298050        0.22742391413927        0.91904950540776
C            0.28434812382589        1.12143572605044       -0.25128741957563
C           -0.22671497110449        0.36560638828376       -1.49154892509596
C            0.57049493525108       -0.91297582739123       -1.79640044491801
O            1.50107802050408       -0.87872886205501       -2.62186885643408
O            0.21412946908777       -1.94737124470458       -1.16971905619383
H            0.08188499323975       -1.47785397281924        1.95898360135367
H           -1.19446498688718       -0.43160981277857        1.49303050209204
H            0.84476525022570        0.84802660996714        1.80255127015848
H            1.64287773324418       -0.26152635618780        0.67754835137090
H            1.15646512112787        1.71025091504784       -0.53694660618396
H           -0.49774152733888        1.81663329120250        0.05912265253046
H           -1.26846291597426        0.06776424020322       -1.35532309062868
H           -0.16586019653218        1.01872634010879       -2.36292366614445
H           -0.39357909973763       -1.39901560122617        0.34967645956786
O            0.68703518389377       -4.04163296103553        5.15264037715273
H            0.61550415807802       -3.54586069775506        4.31180753717284
H            0.49777218826190       -4.95987037344076        4.94147257122569
O            3.17791948094099       -1.26720107265540        3.50353236345283
H            3.24709362495670       -0.36112133438921        3.81563123617277
H            3.48165328897771       -1.26689296536207        2.57146648298634
O            3.59730613365448       -1.37560517336878        0.82382629176171
H            4.40348015361420       -1.47116456787338        0.31274594110136
H            3.04486177866196       -2.16099887438665        0.60725889743094
O            1.94954819772930       -3.46229733709501        0.24637638167425
H            1.28976130430379       -2.99907587506719       -0.31341574619533
H            2.49583640611918       -3.94653368734968       -0.38187781322477
O            3.26813136279799       -2.97016770995448       -2.25928944681931
H            3.64795999969061       -3.17960699745296       -3.11602611292246
H            2.63632502033163       -2.23856734202247       -2.42153054284779
O            3.40094487711212       -3.34214482441558        5.52531992701343
H            2.46001289487039       -3.59657341653494        5.54798655786876
H            3.45526726593044       -2.64978403157142        4.84802648687665
O            0.93807388223021       -2.62551846169451        2.77898301761119
H            1.27559235063324       -3.15326212467721        2.03761135313028
H            1.71856914692864       -2.13952179148113        3.12202014230044
