37
 energy: -59.873409930787 gnorm: 0.000259896344 xtb: 6.7.1 (edcfbbe)
N           -0.12055569800447       -0.15627036312915        1.91498674111862
C            1.21048422844218        0.04529803119533        1.31794238938572
C            1.11787591950532        0.59268784239729       -0.10714389567467
C            0.02493062156670       -0.05220280864911       -0.97400505684598
C           -0.02144042019287       -1.59850885563382       -0.90285547275909
O            0.47666331649926       -2.25016728576298       -1.83855268342418
O           -0.59199622870749       -2.09509017797508        0.10307809640222
H           -0.04514443395059       -0.46131791197045        2.92152839244845
H           -0.66201274621460        0.70919644908824        1.89616314007361
H            1.78150436952367        0.74167525656679        1.93180402738461
H            1.72371965288613       -0.91579400702506        1.30952651216648
H            2.08259952426127        0.44059437181274       -0.59205605036318
H            0.92602909735979        1.66718990610081       -0.08029241509432
H           -0.96233624114940        0.30974118194054       -0.67881340446268
H            0.18929584134058        0.21796502187830       -2.01883215131430
H           -0.58470992195694       -0.90895818965694        1.35167539831979
O            3.72225055652918       -1.78977187992854        2.52953562198460
H            4.61108993406069       -1.58052760264513        2.22988738550184
H            3.64465682479571       -2.75746317996000        2.48540089268907
O            2.64483486674333       -0.33974247675289        4.67842074552790
H            3.03269557411809       -0.86918948257336        3.95945448117590
H            2.59773761256265        0.57162053402414        4.33081991979735
O            3.47730725412543       -4.58149490490644        2.28068241313460
H            2.92283866814988       -4.85678110400854        1.54485806527040
H            3.30737141249027       -5.18639985336305        3.01035407721758
O           -0.64818826296632       -3.32209784353644        5.32271480409351
H           -0.05243584421181       -3.81740855827974        5.89294645529959
H           -0.92342108105372       -3.90794523370964        4.61094954567107
O            2.07072706952616        2.17399979863805        3.62425317637006
H            1.10029204814212        2.17725821978718        3.76024074193065
H            2.39516378422258        3.02428062291629        3.92902741035878
O           -0.64754673642318        1.93628434034311        4.06711201767600
H           -1.13273248337732        2.43197658066659        4.73064277650156
H           -0.56779856269515        1.02456685017168        4.40399859955300
O           -0.00100966590060       -0.69935293879562        4.57015060962297
H            0.97232943865890       -0.64085698563498        4.73081689575552
H           -0.28796528872951       -1.56983836364984        4.88731079756191
