37
 energy: -59.879214762332 gnorm: 0.000364160598 xtb: 6.7.1 (edcfbbe)
N           -0.48123454331464       -1.32327220629198        0.94819634322932
C            0.39280638275135       -0.21555538271764        1.35691157309209
C            0.73711340418814        0.68908908215333        0.17040527027083
C            0.92593743921586       -0.04245727145991       -1.16666454804094
C            1.89249767754630       -1.23978781550722       -1.18670265847817
O            2.91777846512129       -1.15435074527020       -1.88686362260126
O            1.55562745172386       -2.28214760432434       -0.55514913557299
H           -0.83332791846752       -1.87212605913799        1.76690903855293
H           -1.28904958926312       -1.00997080700198        0.38722297327556
H           -0.09004685922879        0.37493975766163        2.13523907383665
H            1.30963377114479       -0.64616617684789        1.76321367509055
H            1.64901435287291        1.23960396567612        0.40571378624658
H           -0.05861169060702        1.42075027420617        0.02089660583142
H           -0.03106065838198       -0.41923088881942       -1.53155324693476
H            1.30574197527696        0.66916112524524       -1.90227800853820
H            0.11442147892009       -1.92882959467453        0.34091279875335
O           -2.53689386604707       -1.26500546198599       -0.97351369316792
H           -2.04308559205201       -1.64890723838431       -1.72611870118719
H           -3.26009099439611       -0.75584783694684       -1.34736913839807
O           -1.60566021678951       -2.90296949643952        2.86909258442567
H           -1.12481685790630       -3.61672870177131        3.29575517002189
H           -2.15232411305378       -3.30441651064403        2.16771994410130
O            2.31593633672916       -4.55803037464128       -2.07541334728779
H            1.55389167953461       -5.08583300539657       -1.80127971030001
H            2.31575782687878       -3.78384749527357       -1.48288411761442
O           -2.71204814028669       -3.62834786148652        0.45105123357403
H           -3.49226893480554       -4.12374272494574        0.19076639163602
H           -2.75465363374546       -2.77182051091040       -0.02225240493399
O           -1.05739926454903       -2.53844494527749       -2.87793575182463
H           -0.89529767549873       -3.32608887476554       -2.31170417746658
H           -0.24984019340093       -2.45684053397330       -3.40927197734955
O           -0.42412842382371       -4.33891861610431       -0.93539969097531
H           -1.17884472059348       -4.18158943764891       -0.33140363635684
H            0.27368573746843       -3.72233265370374       -0.66591828433942
O            1.55174222429450       -2.67963060047235       -3.96935926063553
H            1.83064258857712       -3.50843374246998       -3.52941224131849
H            2.14920409393741       -2.01454602973886       -3.60251010861954
