! Opt B3LYP D4 def2-TZVP TightSCF TightOpt CPCM(water)

%maxcore 5000

%pal
nprocs 10
end

%geom
    MaxIter 500
end

* xyz 0 1
  C          -0.05354130439527      1.01531020687317     -1.29183966428368
  C          -1.01793255081412      2.12504845417734     -0.85218062485457
  O          -1.82289269929954      2.53188609107730     -1.72701068796333
  O          -0.92995454690117      2.53667277820526      0.33558145184655
  C           0.92317705945380      0.60067343432858     -0.20818907762591
  N           1.85861514197510     -0.45805742274193     -0.71521516632247
  H           0.48644925511392      1.37239731796978     -2.17307048032521
  H          -0.65408597968018      0.16184590893568     -1.61703886762333
  H           0.41379703563960      0.17880227668936      0.65467816788068
  H           1.53387867733843      1.43674632284819      0.12229279801222
  H           1.34008904824981     -1.31891347818837     -0.99499599045518
  H           2.39135738838260     -0.13115753248256     -1.52287410369166
  H           2.53324443199381     -0.72424257750555      0.00260330860595
  O          -3.84718599346913      4.25862495530698     -1.03193474557210
  H          -3.47605676615120      4.67266112865243     -0.23573518777188
  H          -3.13705852452297      3.61901591706153     -1.28221669446425
  O           0.33575806654653     -2.72403367304318     -1.39190092263118
  H           0.05247292368154     -2.72263801068146     -2.31629582716372
  H           0.80673941276529     -3.55947659878420     -1.27114186883091
  H          -1.58601219736305      4.04242060398209      0.82159986281722
  O          -1.97638734103256      4.93207955679760      1.00676746000000
  H          -1.76599540933857      5.14654814251607      1.92065553896049
*
