37
 energy: -59.874789989919 gnorm: 0.001048144089 xtb: 6.7.1 (edcfbbe)
N            0.54360332538416       -0.27251517305279        2.09994545417962
C            0.75309898409503       -0.82946791477327        0.74889938804524
C            0.41566200183414        0.20751042210172       -0.31610923029932
C            0.39891831677661       -0.41336273778143       -1.70685719980720
C           -0.43730314265467        0.36777513836635       -2.73694402756847
O           -0.84085018252456        1.51786443294302       -2.45680375467379
O           -0.66931530740201       -0.21583785503060       -3.82571756623589
H            1.24815632252449        0.43644057795178        2.30621480854769
H           -0.39209529260281        0.18729701028755        2.15068044651151
H            0.10305800684810       -1.69429463817745        0.60810021333827
H            1.78634960387446       -1.15906294655888        0.64361099915979
H            1.11646226810201        1.04339115249758       -0.29980611177136
H           -0.58074947218947        0.60243075643164       -0.12323986838634
H           -0.02495023033294       -1.41703266190979       -1.66504964942030
H            1.40310673826467       -0.50267251110272       -2.12832252587083
H            0.59844473374363       -1.03425201823275        2.82390376153865
O            0.69465413001861       -2.30763039127017        3.90028129326182
H           -0.00491792202168       -2.30939137844141        4.57677002831835
H            0.67943078903820       -3.17792338293258        3.49243724369442
O           -3.75843779480169       -3.00822742659457        0.39665605954490
H           -4.12934912792695       -2.23516801294278       -0.03917126752738
H           -3.86669926533036       -2.87630365169404        1.34523306338621
O           -1.79975718612336        1.23496413362928        2.18577264204756
H           -1.95956396215123        1.87575987789429        2.88485744986721
H           -1.95471609960811        1.69647506326036        1.34515210384719
O           -1.21752063517670       -2.86673677391896       -3.48080449944662
H           -0.87609135564648       -3.33664222566415       -4.24862037426997
H           -1.05899661983838       -1.91472700884813       -3.65738814101243
O           -1.11354497076280       -3.37236541137548       -0.60479516761844
H           -1.18638358931172       -3.34610222650169       -1.56903259083471
H           -2.02894160407708       -3.38500257871465       -0.27643932466462
O           -2.01866907843281        2.64287067892750       -0.23804075541113
H           -1.67008942060269        2.23400292600541       -1.05225616022543
H           -1.87848152295102        3.58859239201617       -0.34568383668798
O           -1.37388900652498       -2.37902346477135        5.78228079021974
H           -2.23165915717249       -1.96720261800950        5.63709666857203
H           -1.21149027426273       -2.38391155415138        6.73011463752640
