34
Coordinates from ORCA-job 01_Alanine_zwitterion E -858.878276423491
  O           1.02119742742298     -0.52778962952865      0.61055334741629
  H           0.22684816055002     -0.82124207470564      1.07367339207426
  H           0.74526893862175      0.25279016322580      0.08181148089547
  O           1.70915803163229      3.36512471112713      0.88965530878623
  H           1.05413824103860      3.79984518639681      1.44773598750194
  H           1.18305047804418      2.80615363104971      0.27426512132613
  H           1.89719471303318     -2.45187637606522     -2.39192767735630
  O           1.58622082340346     -2.31254495186133     -3.32593880797232
  H           2.34246522746128     -2.47800962190845     -3.90251269917744
  H          -0.80032480910299     -0.71034748165500     -1.78220115020504
  C          -0.93989791098389     -0.03185844669789     -2.62145190622976
  H           0.93678295797479     -0.66312781603733     -3.33837187835515
  H          -1.52263927935156     -0.53984511393267     -3.38645827937237
  N           0.42093659592609      0.22754213332486     -3.18438403745851
  H          -2.60472641191063      1.02673482082539     -1.80666407320776
  C          -1.60795460951568      1.25882115796034     -2.18294910087013
  O           0.34569504417634      1.70826551500094     -0.85558020745066
  C          -0.85447765293668      2.05093318063912     -1.11025284027091
  H           0.92430185106627      0.80028672755820     -2.49364553954619
  O          -1.44234105963966      3.00530208046170     -0.56292799032598
  H           0.37418289942507      0.73960207929211     -4.06454339182352
  H          -1.75205412318055      1.92312664089331     -3.04083639529040
  O          -4.00224665286560      3.63684054024706     -1.06900715355328
  H          -4.02165306813081      4.19445382187796     -1.85598776517952
  H          -3.04677864323368      3.40911745641353     -0.92372284514230
  O          -0.87513009092512     -3.54903889835040     -3.97849299344670
  H          -0.01140271211131     -3.15820329242299     -3.74321052644183
  H          -1.47658768293184     -3.25305818420348     -3.28515810323019
  O           2.23620252377545     -2.56325289062920     -0.73929880407665
  H           3.17922342320462     -2.49662325665808     -0.54490632526439
  H           1.80656027263581     -1.81789974134912     -0.25413073540763
  O          -5.35019641322632      1.23804104786688     -1.43356381488559
  H          -5.14362904530905      0.92745145425651     -2.32270297214889
  H          -4.87685351679394      2.09491457671544     -1.34728342870522
