22
Coordinates from ORCA-job 01_Alanine_zwitterion E -553.091131224912
  O           1.21106391314182     -0.90405795748304     -0.15115244409826
  H           0.83732787556617     -0.03229084719724     -0.40579087745235
  H           2.11942464278666     -0.72740849275763      0.12278864301712
  O           2.01729137639241      2.93683013746121      0.31041619754429
  H           1.56399574421097      3.36396763651139      1.04627354617291
  H           1.30882363507179      2.44804994838333     -0.17009244065133
  H           1.06029667707319     -1.97355014776885     -1.58987537749304
  O           0.80662596841532     -2.43692782866875     -2.42130574102380
  H           1.63459828078941     -2.62370955722337     -2.88087679016712
  H          -1.62436416920324     -0.80351880851963     -1.53063867826707
  C          -1.80366789019685     -0.11239578744134     -2.35243692824819
  H          -0.09250454082238     -1.01896823946576     -3.18255971107980
  H          -2.60220682010812     -0.51124624520156     -2.97377063911815
  N          -0.54798936858523     -0.08724520102319     -3.16903619816879
  H          -3.08261577774095      1.23237672449809     -1.28960596959641
  C          -2.13762346425620      1.27635721724545     -1.83044155074235
  O           0.13550732644857      1.48829475269859     -1.07854011312214
  C          -1.07263735748554      1.89581951975378     -0.91197984525663
  H           0.09379669999130      0.55985348211063     -2.67729077042644
  O          -1.42321276143409      2.76294375534843     -0.10339887258947
  H          -0.70987221450900      0.24213659833037     -4.11874117918625
  H          -2.28692029425371      1.96559083106188     -2.66839104160221
