34
 energy: -56.707483480185 gnorm: 0.000228617786 xtb: 6.7.1 (edcfbbe)
H            0.92180309545123       -1.02703812229201       -0.67174101915320
C           -0.16265969141664       -0.95145611379563       -0.58035844108114
H           -0.20774103607963        0.19752031814803       -2.36752127044951
H           -0.61596778172778       -1.88695163917440       -0.91207783266994
N           -0.62993452703592        0.17411482299073       -1.40635091641466
H           -0.17713418641790       -1.50834428029650        1.51836056850028
C           -0.51309039860634       -0.69057171313722        0.88249900076875
O            0.15490448945704        1.61121694722162        0.66916453920689
C            0.11350153600023        0.61724114766395        1.43947267079377
H           -0.35534274135554        1.02209690748071       -0.85580482151425
O            0.51204354363463        0.60566717309166        2.61806710891782
H           -1.65509943101088        0.17743171825054       -1.52837493001334
H           -1.59400684613158       -0.59328618625656        1.00384324949405
O            2.30681966540826       -1.10545968546032       -4.85058716307814
H            3.20860658469029       -0.83567561139496       -4.65636941993762
H            2.27661529118531       -2.06638591652598       -4.80750609205516
O           -1.37550370068857        2.68776801810110       -3.34953877379603
H           -0.91822612171319        3.23939437149253       -2.71019749656135
H           -0.71247838703761        2.06828864796142       -3.70326333538479
O           -2.90768049328045       -3.07638434833671       -5.78197671788953
H           -2.04816164552769       -3.50338081586791       -5.84380808785611
H           -2.73868404048320       -2.19591655770545       -5.39907001994064
O           -3.13270080845740        0.80410439621957       -2.49741225386963
H           -3.98444028836830        1.13104956229338       -2.20086594005422
H           -2.61161627563598        1.58308326232966       -2.79721743398288
O            0.09884000326716        0.39864084964457       -4.00782720413452
H            0.87300735439669       -0.05689757097919       -4.37297244671826
H           -0.69234722644943       -0.03169719146156       -4.39589019975752
O           -1.48261051028712       -3.93869483218137       -1.18004597016512
H           -2.42171166476067       -4.12738429679010       -1.26809882679158
H           -1.02691808331262       -4.78308170034665       -1.12590773971222
O           -2.36972900505579       -0.47475414688539       -4.81568322031728
H           -2.75531225620694       -0.17475703341363       -3.96722776771930
H           -2.69526341646451        0.13817861943642       -5.48152979666680
