34
 energy: -56.714598964065 gnorm: 0.000360369431 xtb: 6.7.1 (edcfbbe)
C            0.17997903740055       -0.82383538817680        0.25702891019516
C           -0.19149416319138       -0.66389598557971        1.74729124243427
O           -0.04878648292903       -1.67879780663924        2.47050753096798
O           -0.63557747162474        0.43498550898026        2.14020285866588
C            0.07795053098678        0.48412296145853       -0.50996850799665
N           -0.03430209644881        0.25601433684514       -1.96263264798024
H            1.17450929701123       -1.26868065718674        0.22035789041714
H           -0.53169734199166       -1.55087363936016       -0.14063727157830
H           -0.81986966582323        0.99914080049006       -0.16848800437302
H            0.93471825775416        1.11932209809084       -0.28468704973119
H           -0.77716932660102       -0.48279935082780       -2.12282422464527
H            0.84868004862062       -0.04933403716250       -2.36796486686689
H           -0.38759042644426        1.12747161278146       -2.42261188419588
O           -1.52005144920943        2.37449618192971       -2.77984548019917
H           -2.28966466334395        1.91808434946177       -2.38660882362090
H           -1.47569171389139        3.24053200871239       -2.36773958253471
O           -3.12912972159449        1.11575556254649        1.22200916446552
H           -2.23230364187509        0.99613841813318        1.58636164066988
H           -3.68586988841621        0.52172891741360        1.75949104294335
O           -3.48375727421038        0.91747128200752       -1.45396807690699
H           -3.32790955561999        1.00309638389526       -0.48825453828879
H           -4.42970443342744        1.03368895746509       -1.57745989396638
O           -2.31058835499733       -2.35517764768535        3.78641867159372
H           -1.45036615993839       -2.05638156714715        3.42058391595618
H           -2.35060596757708       -3.30114824765163        3.60931097910693
O           -4.34869226768859       -0.64519422209999        2.99338914181528
H           -3.63006885570341       -1.25845496182382        3.24007288132908
H           -4.66497491628934       -0.27170663716178        3.82183724769405
O           -2.80769184699375       -1.91328646684407       -4.85671258671459
H           -2.20918735291848       -2.38366064065675       -5.44413681035365
H           -3.28147330542134       -1.26470441256237       -5.38661498881396
O           -2.13359364500523       -1.40820835105123       -2.17464696552587
H           -2.41017597375670       -1.66947647208366       -3.06892154051791
H           -2.74834320885215       -0.70237588844915       -1.89694637336950
