37
 energy: -59.874968465314 gnorm: 0.000433709818 xtb: 6.7.1 (edcfbbe)
N            0.26230828587060       -0.14227886655991        1.93119896263994
C            1.23793299768148        0.46226248662592        1.01024929594660
C            0.56225920144222        1.02367694610309       -0.24152606039984
C           -0.53085596308733        0.11990058854615       -0.83182401064807
C           -0.10808274247333       -1.35599709545260       -0.98784347147711
O            0.25698750963715       -1.76305184543347       -2.10232689415471
O           -0.18911029962826       -2.06922393480253        0.05180924501238
H            0.73865941942866       -0.42122071560720        2.82557513535554
H           -0.51717725727106        0.50675575706794        2.13994911673139
H            1.77092073459401        1.26211583063056        1.52528427080476
H            1.95743125641519       -0.30941085987647        0.73021738542700
H            1.32834969446032        1.19004602699839       -0.99966507257317
H            0.09787383099028        1.98409519259962       -0.01215817706613
H           -1.41973661223234        0.14232499256246       -0.19875978620428
H           -0.80183679923275        0.48557214417447       -1.82380153222347
H           -0.10729599104510       -0.98846087254450        1.45044933277399
O            1.55469159085910       -0.72057095575897        4.24450219571191
H            1.01795003255040       -1.10248142785220        4.96090071003615
H            1.84042968798577        0.16501915495705        4.55050043119177
O            3.24684305410421        2.87436394159644        2.41741702132680
H            3.15442750272649        3.80805863990936        2.20449532642850
H            4.09700546691411        2.58575888771919        2.07208134623125
O            2.45114054528534        1.78218640919322        4.88244180411620
H            3.25813323226368        1.81501355243523        5.40344390429806
H            2.66723202127073        2.17587107781204        4.01845224207919
O           -1.96117575959587        1.45126571345133        2.61039874258185
H           -1.83402995449209        2.26636786882384        3.10619993003248
H           -2.62653013781958        0.93674532568863        3.07709521579327
O            0.01776419757915       -2.01147362986261        6.18663237357297
H            0.50993624678283       -2.50240579942877        6.85147895287854
H           -0.63483870101913       -2.61155087235868        5.81220644718673
O            3.32465811823986       -1.91464510290917        2.35455068327354
H            2.79424579746630       -2.63112814445144        1.97250008016708
H            2.80150924980283       -1.58184269821835        3.10469015486303
O            1.48496731722623       -3.80675034057967        1.30183165639075
H            0.89718454888174       -4.41759657127517        1.75817842965663
H            0.90892967744589       -3.25876180388933        0.73226761225944
