37
 energy: -59.882188829158 gnorm: 0.000087053286 xtb: 6.7.1 (edcfbbe)
N            0.39267995164826       -1.20545180301361        1.79232757658859
C            0.84964439815137        0.15497715061203        1.46776449023523
C            0.06876884498384        0.72508978116176        0.28712654989650
C            0.52128208734407        0.20556302594946       -1.08380260288617
C            0.00441374680957       -1.18478733159975       -1.53041688951709
O           -0.30280751822238       -1.30659545402260       -2.73172502361409
O           -0.04671637585131       -2.11229505539765       -0.68487681988633
H            1.04286494261231       -1.68362658062982        2.44624116559252
H           -0.54170808864946       -1.18644892437866        2.24109460798646
H            0.71514637622156        0.78964215029465        2.34577001662069
H            1.90923939168395        0.12371133376200        1.21185892616783
H            0.19809201453861        1.80799581020159        0.28097763720445
H           -0.99502500153487        0.51979972064607        0.41570150022763
H            1.61299466774880        0.14726864318416       -1.12387359753451
H            0.20607902214792        0.89552865736190       -1.86992858531951
H            0.29357842391086       -1.73390364746580        0.88787552122054
O            2.54739864782056       -0.09824584918146        5.06485446804096
H            3.35328913812848        0.39505180337932        4.89112140448772
H            1.80703547980950        0.51218984801105        4.85832442758450
O            1.94710407194729       -2.38429857068496        3.76757610899340
H            2.77746313474310       -2.84987789448563        3.64056038865625
H            2.14954836188177       -1.58989581416128        4.31129229170597
O           -2.00081477031472       -1.60584477518917        3.19571292155461
H           -1.54664076341145       -2.35402082939334        3.64828070902145
H           -2.78227022540965       -1.97008787917110        2.77355565320293
O            0.01394537020585        4.33020611910979        4.76677693232374
H           -0.50008417750869        4.74417495332897        4.06667284632285
H           -0.33237679637323        4.65353973273067        5.60408981326232
O           -0.50758896722843       -3.59498574066960        4.24795146974718
H           -0.44739958331673       -4.43080919955727        3.77745301708743
H            0.38200022993899       -3.19412561102995        4.20828217655823
O           -1.88763832562381        0.46316507678393        5.02375732619296
H           -1.89984183674948        0.00704541300631        5.87023255327593
H           -2.00219732824484       -0.22833434824885        4.34325769145840
O            0.52519119005252        1.56533540700264        4.33259484593394
H            0.48838432266637        2.51673614124791        4.51051560161849
H           -0.35355405649243        1.21463154053013        4.58685787994119
