34
 energy: -56.709053568939 gnorm: 0.000297507926 xtb: 6.7.1 (edcfbbe)
C            0.76352570640190       -0.67867319327364        0.09021594374453
C            0.87987858640153       -0.19002295489961        1.56460450202016
O            0.95869692650124       -1.07967182554423        2.43952557940493
O            0.89965557571327        1.04237123136782        1.76360029743540
C           -0.02356539835834        0.29957012914051       -0.76355565875419
N            0.08530613498332       -0.01136650582395       -2.19752898003085
H            1.78994425213345       -0.76059171746373       -0.27379351569326
H            0.32000608395324       -1.67290322403787        0.12030903849999
H           -1.06973166051529        0.29130332642286       -0.45448706123827
H            0.37450208051228        1.29557817395532       -0.56626999820755
H           -0.33456432553876       -0.92837704382742       -2.41604164210351
H            1.09786459876264       -0.02726820235205       -2.49811140485500
H           -0.35208626352172        0.73910368468944       -2.77535428839884
O           -0.79504914836730       -1.62993811530048       -5.54005128039339
H           -0.83723031796562       -1.99504547101556       -4.63899120469811
H           -1.70242207393714       -1.50358811786610       -5.83134519837829
O            0.99164814431601        0.42262936868898       -5.60851518805219
H            0.39696869864051       -0.35700026837678       -5.61924689408484
H            1.29491178929670        0.55217729630504       -6.50975120857465
O            1.95648548728286        2.93819664493159       -2.74432540513318
H            1.82946496725146        3.25565278009616       -1.84772271860727
H            1.06429165615247        2.80331304555084       -3.12408966764969
O           -0.90894130452719       -2.59388602862511       -2.89505121579664
H           -1.72842769444839       -2.94339505660123       -2.53187276744591
H           -0.21929686002426       -3.24387155102189       -2.72989222561328
O           -0.41404102679575        2.05928089307406       -3.89479104312378
H           -1.19953111151403        2.47088142726684       -4.28889896873887
H            0.05372298904729        1.59153540271837       -4.61499503328375
O           -2.68900913898020        3.27776159706960       -4.98222766905154
H           -3.53740439756277        3.19995402665199       -4.53549607296292
H           -2.60736103352146        4.18454118734903       -5.29094623022588
O            2.54223250653625        0.28723095119038       -3.27631344987405
H            2.59846568235501        1.23972941332092       -3.07352186292015
H            2.18871388931593        0.25445069630085       -4.18522750718110
