34
 energy: -56.691312991156 gnorm: 0.000430935941 xtb: 6.7.1 (edcfbbe)
H            1.10094011090861       -0.44098610591490       -0.94529048933479
C            0.01208889989623       -0.48707039291560       -0.99240499197100
H            0.00443802733805        0.82441769081080       -2.62284080665008
H           -0.28568715534767       -1.41905599977200       -1.47533730082232
N           -0.48957230200749        0.68247414029671       -1.74308067730454
H           -0.24162411686814       -1.29619077362850        1.00017694218281
C           -0.55289076970769       -0.42929742321715        0.42121292598132
O           -0.01718137662266        1.91018871984579        0.52602847912995
C           -0.11792386590269        0.84388403503295        1.18428865379394
H           -0.33203609423403        1.48358822786771       -1.07236171268985
O            0.08692396376671        0.73547051135591        2.40865647852496
H           -1.51295520759505        0.59127028328723       -1.91360163139161
H           -1.64411947120563       -0.41860791619904        0.38630357052970
O           -3.23460850307007        0.43510286636579       -2.11067253318518
H           -3.59582877748368       -0.09394598160351       -2.82922607973792
H           -3.77983637412276        1.22205945405515       -2.02449766651006
O            2.28312118384359        0.03068230988640        6.09836742204120
H            3.04286409882397       -0.10270182009648        5.52113332251580
H            2.62105980068315        0.40034223910288        6.92212080421732
O            0.97500829235051        2.16991353448498        4.62112149660928
H            0.63367606144903        1.76747956758993        3.80049343893878
H            1.28276669428978        1.41773734974079        5.15309057256973
O           -1.01103161912707       -1.20984780560146       -6.63914021340462
H           -0.33288858645689       -1.21901611312309       -7.32071596692298
H           -0.89063816371055       -2.00377566249593       -6.10765256700085
O            0.69638401455719       -2.33833149232764        6.40875095120582
H            1.22592279199034       -1.53278578591062        6.28900127082770
H           -0.21386100934800       -2.07762633757913        6.23933977379324
O           -0.70462959781147       -3.63755917578840       -1.43494132369729
H           -1.53081175783425       -4.12752074690262       -1.49133146458625
H           -0.39916050102832       -3.72619270512017       -0.51984729862540
O            0.09615287588409       -3.82287366116879        1.34138155415893
H           -0.46987055757682       -4.13157240509868        2.05624461826420
H            1.00415199130849       -3.96864862510903        1.62383344863217
