34
 energy: -56.713385979481 gnorm: 0.000143402451 xtb: 6.7.1 (edcfbbe)
C            0.83011115666831       -0.18328379696156        1.20510196042281
C            0.52359685956240        0.92737870806058        2.22629889723645
O            0.58598575333224        0.60059161788214        3.43899883067502
O            0.25028328618223        2.06948638628750        1.81077796659932
C            0.21633096360964        0.04041988609300       -0.16995637685142
N           -1.22078643928757       -0.30610008564309       -0.18984067957703
H            1.91871424171982       -0.20441115555983        1.12296826150959
H            0.51409617170534       -1.13514639992774        1.63164301998364
H            0.34208358784457        1.08996620512461       -0.44246148834995
H            0.74133074614613       -0.58707334333268       -0.88985235409140
H           -1.41625801816407       -1.12492601019879        0.44136715415183
H           -1.51996309605242       -0.53576314341828       -1.13824131314571
H           -1.82123591037382        0.48852740800749        0.13173661169420
O           -3.04698520872473        1.67954920845778        0.29917949188531
H           -3.96509746195186        1.44245102126853        0.46085356041478
H           -2.78163479413722        2.27692035457785        1.02095335733022
O           -0.17260155426579       -5.47058364809364        5.81598172064317
H           -0.98963388448664       -5.01146126203091        6.03557533958727
H            0.35177645100162       -4.86519639788598        5.28206978757202
O           -2.79023958055222        1.53160493733159        4.60363530875343
H           -2.72148943935884        2.10700741520589        3.82074907834639
H           -2.00431178449618        1.76689811018549        5.13074404526579
O           -1.70145413961699       -0.89717873333755        3.89945755477115
H           -0.81692592825280       -0.49541783968682        3.84884926130317
H           -2.28314435896501       -0.15645871540658        4.16812130676908
O           -0.24425547267889        2.03217007556249        5.59186822891346
H            0.12949349228359        1.58991932334950        4.79690400366962
H            0.16792855223016        1.60412575430321        6.34779761325749
O           -2.11772903885948        3.16707845793699        2.41879762936352
H           -1.19995365137659        2.84413943322532        2.28190484098796
H           -2.05442679621438        4.12370978203092        2.49569881998199
O           -1.81500129534254       -2.30285243483198        1.57598210653497
H           -1.82004805291285       -1.85519955463688        2.44742238902290
H           -2.63304135623218       -2.80565456412092        1.52267406548500
