! SP B3LYP D4 def2-TZVP TightSCF CPCM(water)

%maxcore 5000

%pal
nprocs 25
end

%geom
    MaxIter 500
end

* xyz 0 1
N           -0.61612643870305       -0.06662315454949        1.76271896019514
C            0.38247469224743        0.73603963423235        1.03842878866593
C           -0.25947031117247        1.75155948974665        0.10222818518664
C           -0.61919639758544        1.16030959211621       -1.27023870507455
C            0.65409372879762        0.85261898792638       -2.03003249340670
O            1.03183777556084        1.60150427504879       -2.96994994720882
O            1.33327250733048       -0.13706257432748       -1.64921269816018
H           -0.11928267614262       -0.77588888747730        2.30723378943155
H           -1.14300855786996        0.56042583659145        2.40629358273994
H            0.99199084578628        1.26162449063533        1.76782809739120
H            1.02704972505703        0.07702968761779        0.46234290667871
H            0.42310338699581        2.58676916556923       -0.05549816720530
H           -1.16742193313835        2.15411489327485        0.54631484445242
H           -1.18062017173356        0.23995893220700       -1.14464311302165
H           -1.20929740123193        1.87455864100706       -1.83680580947813
H           -1.28392285623760       -0.54500613994324        1.13662268585854
O            2.54186749501621        2.28457276676919        2.76828455044880
H            3.04194303626615        2.21561889984188        3.58935545899728
H            3.19538719063479        2.47971102990789        2.07124019778669
O           -4.50542000371613       -0.13816243499731       -2.98679233153136
H           -4.31199140143906        0.16490448113494       -2.07376324164598
H           -3.70177436812182        0.07004878140444       -3.49302741246447
O           -3.12602123672764       -5.43878242194097        0.60761798111264
H           -3.13205182994653       -6.23466226581538        1.13988194482879
H           -2.40580915809361       -4.85447618248172        0.98112734774428
O            0.33894144597293        3.82513887026950        2.68965244705081
H            0.33927538429445        4.22879525249843        3.57120005921048
H            1.16234801452664        3.28368694614923        2.66758635461385
O            3.77649061982541       -2.43710848394452        3.89740159000271
H            4.40957570649459       -2.19189648523180        3.21670383841056
H            3.31368061390079       -3.23046644567287        3.57894942234783
O            2.00581882335280       -4.27142861169247        2.78020841313111
H            1.57163183983666       -5.00718462010055        2.31133793454172
H            1.26898437396365       -3.79779151034775        3.22967705976031
O           -0.09457503218197        0.58529019077769        7.24160556954930
H            0.39687059600408        0.90493299676217        7.99874209249821
H            0.39921445437834        0.87927477494890        6.42610993225657
O            1.73554878913232       -0.72225122949968        3.24170492346406
H            2.49640914718668       -1.16493021633933        3.65663882926213
H            1.52194954470919        0.05375377268120        3.79128533625547
O           -4.57132369767304       -3.17100412311984        0.06863471460137
H           -4.51080104159292       -3.05622432873317       -0.90327900777458
H           -4.22734707888142       -4.06669911745817        0.23244345812863
O            0.19915863056297       -2.66737830165353        4.12199169998112
H            0.75622561557797       -1.95247274027086        3.71094453170977
H            0.44283709053993       -2.62833880503365        5.06474422033784
O            0.62826363713224       -2.02161780340996        6.75728233225277
H           -0.16928476203364       -2.48825241986549        7.06151770634682
H            0.37846307832456       -1.07990588490942        6.88359650674563
O            0.23349559070085       -2.37965207542917       -0.13932154795570
H            0.36356078768966       -1.67739674702768       -0.79055782119708
H            1.13817590226347       -2.60980277069658        0.16200410197520
O           -2.44298039506154       -1.44786536513892        0.08757817139606
H           -2.01549328756729       -1.69163592541016       -0.74837218324293
H           -3.14940304964701       -2.10790933643558        0.23096754758771
O           -2.05432795307329       -2.51296637151902        6.91109014047357
H           -2.09376882403657       -1.67398569174613        6.41961532294372
H           -2.20005730069794       -3.19397768409460        6.21836278550943
O           -3.68358714807040       -2.77381711325438        2.74360705566453
H           -4.30708161477601       -2.95689160017718        2.03361569517817
H           -3.60171837678291       -1.78643056401052        2.78356532383719
O            3.82138862924343       -0.61758385759726        1.49887262560784
H            3.85505888376155       -0.12102097114811        0.66822263696375
H            2.97559885189455       -0.38047267222569        1.94377758303402
O           -1.80151534966285        2.53730884398665        5.97771877669317
H           -1.47840333206596        1.76571345658260        6.47040132729755
H           -1.82876389380687        2.24988738291910        5.03164904862764
O            5.33801867878229        0.99674507291537        3.06231569951599
H            4.86262643346293        0.33212249000817        2.51118218270059
H            5.39961669583590        1.77152606240504        2.49160207704317
O            2.77577237065175       -2.93316594562026        0.54515992466157
H            2.57484102742788       -3.48233181558428        1.33299588863869
H            3.22469236397911       -2.13396494605591        0.89488799069142
O            3.37641367814386        5.10553093484088       -0.15007421779578
H            2.39982447439716        5.12344720638772       -0.03770114570986
H            3.68467496012113        5.96131492592929        0.15858703610793
O            3.36184474179833       -1.33805245325367        6.40314964435461
H            2.46952228603136       -1.65034111827071        6.62804150275708
H            3.62520435225217       -1.85976666114779        5.62579724628876
O            3.74414964638677        1.15100985283031        5.31471499663177
H            4.41323675670005        1.04347157647353        4.61157417186927
H            3.72384165837273        0.29601306445311        5.79094364045208
O           -0.81053382829850       -0.36253486380778       -6.55537586809810
H           -0.04367988910172       -0.92897639693586       -6.30215456854584
H           -1.30048754789820       -0.87717920533109       -7.20409754439681
O           -0.99184516957076        2.92568785635503       -4.08349251596133
H           -0.81966422252124        2.97155639228638       -5.03920184903354
H           -0.17476710891075        2.52957476012912       -3.69719067685643
O           -1.25358993377848        4.55946546486977       -1.63033876642975
H           -1.09604717329047        4.22133767756026       -2.52190629903299
H           -2.10211101799810        4.16370033885562       -1.35560365047436
O           -1.57222558265979        1.99422113043189        3.34335982569697
H           -2.38482987385812        2.22521922529441        2.86049579604759
H           -0.90059619548411        2.65107052219872        3.06775521106146
O           -2.01798088713592        0.34283887203233       -4.17078834388279
H           -1.75867913344088        1.28065915456872       -4.08261900000127
H           -1.65413048158649        0.06042150845142       -5.02928697645190
O           -1.38971723731867       -3.74222894399976        1.66745033865765
H           -0.97744725019322       -3.11535566155344        1.04526639597653
H           -2.12646028269046       -3.26272896328235        2.10331017159589
O            3.79912360549068        0.71306755038786       -0.94082989566380
H            2.89021548670938        0.42836687848137       -1.17822432940755
H            4.24124108369422        0.81865702841648       -1.78978118613680
O           -3.72755192426802        2.46764588318982        1.72396983121823
H           -3.77944183703729        3.23183340440995        1.14293446301230
H           -3.72882237188217        1.69441558864396        1.12656717507671
O           -3.67560259132458        3.26817209116880       -1.07359755080347
H           -3.70302209320361        2.30059557373937       -0.96010149687871
H           -4.36989594558878        3.48482035554885       -1.69889352873725
O            3.54616351275332       -1.35452813142029       -4.74067710012600
H            3.59552575453291       -0.42122151533476       -4.45881214472348
H            3.49150853908735       -1.85702949854486       -3.90983817753898
O            0.62430197778002       -3.30553777184997       -3.44694370174094
H            1.46525854832410       -2.97014851389812       -3.06581980321496
H            0.41563260467652       -4.08064792056441       -2.88086156636464
O            1.13391262806531       -2.06863344992429       -5.86372881023586
H            0.84736955306686       -2.63773375915312       -5.12576311288944
H            2.03176868778532       -1.77649139575275       -5.60769762057132
O            0.33542859282316        4.04564002947797        5.44210695884108
H           -0.51522655468319        3.61487958434960        5.71018755113560
H            0.57536696874347        4.65134605052581        6.14309333746138
O           -1.43702217636516       -1.80180995274426       -2.49817730592477
H           -1.57688312200483       -1.04485899543120       -3.09065610887090
H           -0.71787659721237       -2.33856669733822       -2.89062094054833
O            0.71418604674779        5.23659282862513        0.34066444897476
H            0.46890468382918        4.77063382837601        1.16887870135141
H            0.02454134874368        5.03330813306325       -0.31045952270118
O            4.39576168408258        2.75563148039514        0.85527632659533
H            4.12194652504764        3.60727235923720        0.46830288928419
H            4.21363818743124        2.08667730844551        0.17046823430529
O            0.35938397481971       -5.80487861518046        1.24257429906695
H            0.39886857814755       -5.66150718119068        0.27978105079238
H           -0.29827697922211       -5.14311336278615        1.53832822961047
O            3.56287099974248        1.24648307062632       -3.76540479036248
H            2.61667189699299        1.36705594771472       -3.49465095545281
H            3.75753544706435        1.98005474108818       -4.35334946447483
O           -0.06114692372024       -4.81306526223030       -1.33577119024946
H           -0.98103968756694       -5.01700922806837       -1.59361128466197
H           -0.08675747977088       -3.92314532145757       -0.90269399753862
O           -2.65343787187044       -5.33422907163844       -2.05794803287257
H           -3.19134082927867       -4.59657953035414       -2.37888655585046
H           -2.91804047596259       -5.46765650285178       -1.12307481120507
O           -0.56040956233997        2.42715896748473       -6.79698911441977
H           -0.54332506922857        1.45340422741718       -6.75652490761473
H           -1.12284315227404        2.65714807690812       -7.54219795009037
O           -1.51350711227121       -0.58954837792961        4.78822129313286
H           -1.03377385340566       -1.39267306690296        4.50083914993823
H           -0.85785108926459        0.12009598365116        4.77144954071595
O           -3.94815836933614       -2.78340631055070       -2.54133669000351
H           -2.99597369278322       -2.52353832841879       -2.52607099986088
H           -4.38855366573104       -1.96130909132041       -2.82851914120560
O            1.06525621044536        1.29761913776278        4.99363483235811
H            2.02328301135794        1.30644420131263        5.19220114124666
H            0.81030107706034        2.22527316264967        4.88662383105575
O           -4.05255236311670        0.56257062591323       -0.33645033246400
H           -4.88399483283137        0.22506453020282        0.00542075130000
H           -3.38165369963439       -0.15943705772824       -0.14533507926099
O           -2.21894505224344       -4.06486368254290        4.69717780697052
H           -2.89007704218566       -3.67678825937242        4.10824481273023
H           -1.37089121159691       -3.77162746574287        4.32060225940467
O            2.83487161941392       -2.33681447702962       -2.21405782211658
H            2.36992501425516       -1.49700721981900       -2.03156685519354
H            2.96511026502196       -2.74485612259931       -1.34045724215085
O           -3.35555846465277       -0.16986026370170        2.89995415217349
H           -4.04038742007564        0.41744108693430        3.21787414837796
H           -2.69855386378218       -0.24977656754861        3.63428462851811
*
