166
Coordinates from ORCA-job input E -4185.457963187778
  N      -0.616126     -0.066623      1.762719
  C       0.382475      0.736040      1.038429
  C      -0.259470      1.751559      0.102228
  C      -0.619196      1.160310     -1.270239
  C       0.654094      0.852619     -2.030032
  O       1.031838      1.601504     -2.969950
  O       1.333273     -0.137063     -1.649213
  H      -0.119283     -0.775889      2.307234
  H      -1.143009      0.560426      2.406294
  H       0.991991      1.261624      1.767828
  H       1.027050      0.077030      0.462343
  H       0.423103      2.586769     -0.055498
  H      -1.167422      2.154115      0.546315
  H      -1.180620      0.239959     -1.144643
  H      -1.209297      1.874559     -1.836806
  H      -1.283923     -0.545006      1.136623
  O       2.541867      2.284573      2.768285
  H       3.041943      2.215619      3.589355
  H       3.195387      2.479711      2.071240
  O      -4.505420     -0.138162     -2.986792
  H      -4.311991      0.164904     -2.073763
  H      -3.701774      0.070049     -3.493027
  O      -3.126021     -5.438782      0.607618
  H      -3.132052     -6.234662      1.139882
  H      -2.405809     -4.854476      0.981127
  O       0.338941      3.825139      2.689652
  H       0.339275      4.228795      3.571200
  H       1.162348      3.283687      2.667586
  O       3.776491     -2.437108      3.897402
  H       4.409576     -2.191896      3.216704
  H       3.313681     -3.230466      3.578949
  O       2.005819     -4.271429      2.780208
  H       1.571632     -5.007185      2.311338
  H       1.268984     -3.797792      3.229677
  O      -0.094575      0.585290      7.241606
  H       0.396871      0.904933      7.998742
  H       0.399214      0.879275      6.426110
  O       1.735549     -0.722251      3.241705
  H       2.496409     -1.164930      3.656639
  H       1.521950      0.053754      3.791285
  O      -4.571324     -3.171004      0.068635
  H      -4.510801     -3.056224     -0.903279
  H      -4.227347     -4.066699      0.232443
  O       0.199159     -2.667378      4.121992
  H       0.756226     -1.952473      3.710945
  H       0.442837     -2.628339      5.064744
  O       0.628264     -2.021618      6.757282
  H      -0.169285     -2.488252      7.061518
  H       0.378463     -1.079906      6.883597
  O       0.233496     -2.379652     -0.139322
  H       0.363561     -1.677397     -0.790558
  H       1.138176     -2.609803      0.162004
  O      -2.442980     -1.447865      0.087578
  H      -2.015493     -1.691636     -0.748372
  H      -3.149403     -2.107909      0.230968
  O      -2.054328     -2.512966      6.911090
  H      -2.093769     -1.673986      6.419615
  H      -2.200057     -3.193978      6.218363
  O      -3.683587     -2.773817      2.743607
  H      -4.307082     -2.956892      2.033616
  H      -3.601718     -1.786431      2.783565
  O       3.821389     -0.617584      1.498873
  H       3.855059     -0.121021      0.668223
  H       2.975599     -0.380473      1.943778
  O      -1.801515      2.537309      5.977719
  H      -1.478403      1.765713      6.470401
  H      -1.828764      2.249887      5.031649
  O       5.338019      0.996745      3.062316
  H       4.862626      0.332122      2.511182
  H       5.399617      1.771526      2.491602
  O       2.775772     -2.933166      0.545160
  H       2.574841     -3.482332      1.332996
  H       3.224692     -2.133965      0.894888
  O       3.376414      5.105531     -0.150074
  H       2.399824      5.123447     -0.037701
  H       3.684675      5.961315      0.158587
  O       3.361845     -1.338052      6.403150
  H       2.469522     -1.650341      6.628042
  H       3.625204     -1.859767      5.625797
  O       3.744150      1.151010      5.314715
  H       4.413237      1.043472      4.611574
  H       3.723842      0.296013      5.790944
  O      -0.810534     -0.362535     -6.555376
  H      -0.043680     -0.928976     -6.302155
  H      -1.300488     -0.877179     -7.204098
  O      -0.991845      2.925688     -4.083493
  H      -0.819664      2.971556     -5.039202
  H      -0.174767      2.529575     -3.697191
  O      -1.253590      4.559465     -1.630339
  H      -1.096047      4.221338     -2.521906
  H      -2.102111      4.163700     -1.355604
  O      -1.572226      1.994221      3.343360
  H      -2.384830      2.225219      2.860496
  H      -0.900596      2.651071      3.067755
  O      -2.017981      0.342839     -4.170788
  H      -1.758679      1.280659     -4.082619
  H      -1.654130      0.060422     -5.029287
  O      -1.389717     -3.742229      1.667450
  H      -0.977447     -3.115356      1.045266
  H      -2.126460     -3.262729      2.103310
  O       3.799124      0.713068     -0.940830
  H       2.890215      0.428367     -1.178224
  H       4.241241      0.818657     -1.789781
  O      -3.727552      2.467646      1.723970
  H      -3.779442      3.231833      1.142934
  H      -3.728822      1.694416      1.126567
  O      -3.675603      3.268172     -1.073598
  H      -3.703022      2.300596     -0.960101
  H      -4.369896      3.484820     -1.698894
  O       3.546164     -1.354528     -4.740677
  H       3.595526     -0.421222     -4.458812
  H       3.491509     -1.857029     -3.909838
  O       0.624302     -3.305538     -3.446944
  H       1.465259     -2.970149     -3.065820
  H       0.415633     -4.080648     -2.880862
  O       1.133913     -2.068633     -5.863729
  H       0.847370     -2.637734     -5.125763
  H       2.031769     -1.776491     -5.607698
  O       0.335429      4.045640      5.442107
  H      -0.515227      3.614880      5.710188
  H       0.575367      4.651346      6.143093
  O      -1.437022     -1.801810     -2.498177
  H      -1.576883     -1.044859     -3.090656
  H      -0.717877     -2.338567     -2.890621
  O       0.714186      5.236593      0.340664
  H       0.468905      4.770634      1.168879
  H       0.024541      5.033308     -0.310460
  O       4.395762      2.755631      0.855276
  H       4.121947      3.607272      0.468303
  H       4.213638      2.086677      0.170468
  O       0.359384     -5.804879      1.242574
  H       0.398869     -5.661507      0.279781
  H      -0.298277     -5.143113      1.538328
  O       3.562871      1.246483     -3.765405
  H       2.616672      1.367056     -3.494651
  H       3.757535      1.980055     -4.353349
  O      -0.061147     -4.813065     -1.335771
  H      -0.981040     -5.017009     -1.593611
  H      -0.086757     -3.923145     -0.902694
  O      -2.653438     -5.334229     -2.057948
  H      -3.191341     -4.596580     -2.378887
  H      -2.918040     -5.467657     -1.123075
  O      -0.560410      2.427159     -6.796989
  H      -0.543325      1.453404     -6.756525
  H      -1.122843      2.657148     -7.542198
  O      -1.513507     -0.589548      4.788221
  H      -1.033774     -1.392673      4.500839
  H      -0.857851      0.120096      4.771450
  O      -3.948158     -2.783406     -2.541337
  H      -2.995974     -2.523538     -2.526071
  H      -4.388554     -1.961309     -2.828519
  O       1.065256      1.297619      4.993635
  H       2.023283      1.306444      5.192201
  H       0.810301      2.225273      4.886624
  O      -4.052552      0.562571     -0.336450
  H      -4.883995      0.225065      0.005421
  H      -3.381654     -0.159437     -0.145335
  O      -2.218945     -4.064864      4.697178
  H      -2.890077     -3.676788      4.108245
  H      -1.370891     -3.771627      4.320602
  O       2.834872     -2.336814     -2.214058
  H       2.369925     -1.497007     -2.031567
  H       2.965110     -2.744856     -1.340457
  O      -3.355558     -0.169860      2.899954
  H      -4.040387      0.417441      3.217874
  H      -2.698554     -0.249777      3.634285
166
Coordinates from ORCA-job input E -4185.468234067086
  N      -0.624724     -0.052763      1.759566
  C       0.381418      0.754723      1.031395
  C      -0.257505      1.761124      0.082179
  C      -0.613407      1.165616     -1.292594
  C       0.660026      0.850173     -2.050500
  O       1.036579      1.604708     -2.987729
  O       1.341658     -0.143620     -1.661368
  H      -0.129177     -0.764448      2.305946
  H      -1.152737      0.575756      2.404340
  H       0.988861      1.277496      1.764400
  H       1.025947      0.088582      0.465846
  H       0.429658      2.592450     -0.068600
  H      -1.163933      2.176083      0.522454
  H      -1.180817      0.248112     -1.167499
  H      -1.207195      1.877019     -1.855094
  H      -1.291787     -0.535827      1.134758
  O       2.552079      2.302955      2.773406
  H       3.054580      2.231916      3.598174
  H       3.211963      2.498491      2.069050
  O      -4.529487     -0.132613     -3.006049
  H      -4.337258      0.171147     -2.093074
  H      -3.720319      0.074820     -3.514592
  O      -3.139394     -5.461773      0.600075
  H      -3.148927     -6.265026      1.132781
  H      -2.420016     -4.879810      0.974468
  O       0.339742      3.851824      2.693990
  H       0.342348      4.256658      3.582463
  H       1.165726      3.307632      2.672647
  O       3.792905     -2.448900      3.918510
  H       4.428603     -2.203053      3.233799
  H       3.328335     -3.247068      3.597693
  O       2.013719     -4.291434      2.793096
  H       1.575847     -5.033135      2.318293
  H       1.276894     -3.817441      3.245143
  O      -0.090866      0.593758      7.275931
  H       0.403067      0.916456      8.037677
  H       0.404450      0.886619      6.462476
  O       1.744536     -0.726136      3.256949
  H       2.510966     -1.175012      3.674451
  H       1.530416      0.055245      3.810285
  O      -4.590228     -3.185482      0.064443
  H      -4.529817     -3.067467     -0.914004
  H      -4.245011     -4.085087      0.226642
  O       0.202231     -2.682787      4.145374
  H       0.758281     -1.966626      3.732134
  H       0.449956     -2.641327      5.095021
  O       0.638829     -2.029304      6.795935
  H      -0.163559     -2.501081      7.101558
  H       0.387217     -1.082539      6.921968
  O       0.238184     -2.394545     -0.142156
  H       0.371292     -1.687272     -0.796783
  H       1.148043     -2.625167      0.160691
  O      -2.457409     -1.448270      0.079680
  H      -2.025794     -1.694498     -0.764326
  H      -3.168119     -2.115545      0.224629
  O      -2.058860     -2.538112      6.950434
  H      -2.100641     -1.700830      6.458887
  H      -2.201895     -3.220650      6.251572
  O      -3.698847     -2.799506      2.758401
  H      -4.325777     -2.980995      2.041204
  H      -3.620677     -1.811126      2.805523
  O       3.838303     -0.621595      1.502967
  H       3.870952     -0.120761      0.664862
  H       2.994715     -0.385608      1.949288
  O      -1.808521      2.557986      5.998615
  H      -1.483247      1.782862      6.496207
  H      -1.837670      2.273013      5.049284
  O       5.361922      1.003196      3.068322
  H       4.886114      0.336934      2.518479
  H       5.420735      1.782333      2.494176
  O       2.788787     -2.947549      0.544063
  H       2.586814     -3.498818      1.336016
  H       3.239440     -2.145157      0.895526
  O       3.386948      5.128035     -0.154496
  H       2.406053      5.147177     -0.040219
  H       3.699670      5.985964      0.154324
  O       3.378708     -1.338462      6.437748
  H       2.484271     -1.653298      6.664713
  H       3.641503     -1.862564      5.657746
  O       3.760827      1.160584      5.334656
  H       4.430853      1.053159      4.623629
  H       3.739779      0.301244      5.815263
  O      -0.813102     -0.358684     -6.582647
  H      -0.042318     -0.930310     -6.327102
  H      -1.305923     -0.868917     -7.236791
  O      -0.993561      2.936394     -4.103795
  H      -0.819836      2.981740     -5.064552
  H      -0.174470      2.537209     -3.716427
  O      -1.254224      4.578540     -1.649121
  H      -1.095972      4.235942     -2.544219
  H      -2.105737      4.182423     -1.376289
  O      -1.582777      2.019699      3.348533
  H      -2.401372      2.254042      2.861161
  H      -0.906042      2.679615      3.072703
  O      -2.028837      0.345387     -4.194655
  H      -1.765888      1.288497     -4.104894
  H      -1.662473      0.061477     -5.058286
  O      -1.398345     -3.762233      1.668633
  H      -0.984188     -3.131831      1.046046
  H      -2.138642     -3.284875      2.110231
  O       3.813633      0.716044     -0.947556
  H       2.902334      0.428406     -1.186546
  H       4.257484      0.822987     -1.802758
  O      -3.744245      2.496868      1.723060
  H      -3.792769      3.261977      1.133640
  H      -3.748996      1.722018      1.126232
  O      -3.688920      3.290961     -1.086422
  H      -3.721432      2.322711     -0.970719
  H      -4.386681      3.509080     -1.715129
  O       3.561631     -1.355339     -4.759928
  H       3.612015     -0.417579     -4.477054
  H       3.505842     -1.859559     -3.928016
  O       0.626585     -3.318213     -3.467493
  H       1.470697     -2.981462     -3.083593
  H       0.416810     -4.095337     -2.899710
  O       1.140127     -2.071661     -5.887243
  H       0.852491     -2.644087     -5.148820
  H       2.042318     -1.778422     -5.627116
  O       0.340545      4.065314      5.461660
  H      -0.512856      3.637356      5.731167
  H       0.587147      4.672795      6.167151
  O      -1.446669     -1.806374     -2.518044
  H      -1.588195     -1.043226     -3.114718
  H      -0.721531     -2.347264     -2.911318
  O       0.713989      5.259155      0.333589
  H       0.469637      4.795546      1.163618
  H       0.022265      5.052752     -0.324615
  O       4.411572      2.772487      0.852327
  H       4.134989      3.630010      0.462905
  H       4.229102      2.098978      0.165765
  O       0.356992     -5.833295      1.242022
  H       0.396972     -5.687036      0.274674
  H      -0.300908     -5.171483      1.537853
  O       3.580254      1.249934     -3.783626
  H       2.630707      1.373434     -3.513911
  H       3.781366      1.985586     -4.373778
  O      -0.062445     -4.832600     -1.348577
  H      -0.988890     -5.036446     -1.609782
  H      -0.085275     -3.944868     -0.914003
  O      -2.666680     -5.353290     -2.076114
  H      -3.206285     -4.611614     -2.397442
  H      -2.931277     -5.487956     -1.139143
  O      -0.559533      2.438172     -6.822824
  H      -0.545171      1.460958     -6.782181
  H      -1.123280      2.667891     -7.570038
  O      -1.524318     -0.608617      4.823786
  H      -1.038866     -1.409993      4.532965
  H      -0.868880      0.104199      4.805192
  O      -3.965707     -2.790588     -2.559662
  H      -3.012025     -2.530318     -2.545176
  H      -4.408361     -1.962298     -2.847029
  O       1.072112      1.303322      5.021913
  H       2.037840      1.314216      5.218743
  H       0.816218      2.235841      4.914310
  O      -4.077149      0.574742     -0.345869
  H      -4.915217      0.239108     -0.003157
  H      -3.406948     -0.149847     -0.155867
  O      -2.218423     -4.094817      4.721396
  H      -2.894344     -3.707193      4.130385
  H      -1.370862     -3.796502      4.346041
  O       2.848036     -2.345210     -2.227176
  H       2.381322     -1.503364     -2.044210
  H       2.979273     -2.756230     -1.351350
  O      -3.376687     -0.192930      2.939282
  H      -4.070899      0.391257      3.264077
  H      -2.717895     -0.271052      3.671366
