34
 energy: -56.707235941577 gnorm: 0.000214833489 xtb: 6.7.1 (edcfbbe)
H            1.29839094103796        0.45819643745737       -0.29950678716144
C            0.36152766310775       -0.10237958114661       -0.24941914621081
H           -0.28734644161595        1.01229429110072       -1.93868226864184
H            0.52568079072332       -1.10543655032133       -0.64288692867624
N           -0.65648055774959        0.60628038304885       -1.04632859343647
H            0.61592941713948       -0.73528712107849        1.81339397487071
C           -0.10005272146582       -0.18586640945953        1.20442791840504
O           -0.85981611050043        2.09377116165964        1.16433786934951
C           -0.29638234407308        1.19822462645033        1.86464237494050
H           -0.94228690763395        1.40467439930178       -0.43567808443359
O            0.06980054433807        1.35486607407018        3.03611272567622
H           -1.49436873313329        0.04282778724529       -1.20305585657502
H           -1.06574582135838       -0.69462760297299        1.26688007529148
O           -3.52938261004410        4.87954870223479       -3.64058239549367
H           -2.89570428894475        4.25744465079181       -4.05020586573760
H           -3.29930040717836        5.74736341474594       -3.98323464151265
O           -1.68706015680604        3.13625242292962       -4.79655610692525
H           -0.98473729734101        2.85806512429135       -4.17356081476767
H           -2.05952450027089        2.32439930003697       -5.15238908424719
O            2.74373542260644        2.02523328266946       -0.86658892325249
H            2.91528900537351        2.02095575638669       -1.82258954000303
H            2.10757735015501        2.74321736213569       -0.72254335056654
O            0.22391855926499        2.25872363172039       -2.99797528210583
H            0.29686890937361        2.89850550885402       -2.26464295680605
H            1.13249728404744        2.12743831313349       -3.31899539077818
O           -3.31558534679226        1.07229790925698        0.07440081813094
H           -3.97190481962584        1.70858343189739       -0.22415064849064
H           -2.69704423158519        1.56107076259291        0.63686887536708
O            2.90594570558615        1.94510206157000       -3.74062208679486
H            3.21810821621116        1.10765961353361       -4.09792167200215
H            3.32886879748965        2.64689193663380       -4.24534892814758
O            0.46119095021862        3.72711118713912       -0.64706535873058
H            0.00769711240605        3.26009590720907        0.07785946578704
H            0.26107362699910        4.66032082483827       -0.53491438636276
