34
 energy: -56.711735242288 gnorm: 0.000160039881 xtb: 6.7.1 (edcfbbe)
H            0.67976276953184       -0.41341564725684       -0.96867631646887
C           -0.36656141089898       -0.17254705403465       -0.77479791642985
H           -0.12508475584145        1.63841777010381       -1.85986643082013
H           -0.99108966475300       -0.74616549699668       -1.46097031828812
N           -0.57085757637400        1.26825855362380       -0.98316280917312
H           -0.55999159209742       -1.60654187047977        0.84568278643017
C           -0.70107105653372       -0.54101277351559        0.66870503588586
O            0.45819006904309        1.41017123477022        1.47274541250898
C            0.16149156453809        0.21345630492241        1.71970724196626
H           -0.12883349198573        1.72629298810136       -0.15543652649951
O            0.48113431888212       -0.40831835253275        2.74740873617084
H           -1.56995554568021        1.52736926861608       -0.98624575257013
H           -1.74152011400599       -0.29818643062255        0.89395171260935
O            0.25178819548179        2.32897792418250       -5.78470497780273
H           -0.47420128243273        2.73623323317293       -6.26641613897123
H            1.07145855593026        2.67352038686280       -6.18178441435646
O           -1.28938094537460        4.27705189622049       -1.91113785907319
H           -0.76769841422295        4.37173038762478       -1.09273672738464
H           -2.03628410858673        3.70577877690360       -1.67180642193066
O            0.49991576304057        2.61488870013458       -3.05844144904144
H           -0.12182477335384        3.34522113328196       -2.83573704826268
H            0.40346626605230        2.44138010704975       -4.01308791513146
O            2.60992471936839        3.49037461487839       -6.72517078839499
H            2.75778487359896        4.39009924279549       -6.41536065994152
H            3.43307081595249        3.00837434625892       -6.59920344275105
O            0.38768242872706        4.05695063522579        0.30396764703751
H            1.21536941841341        3.97262820991539       -0.21270588868027
H            0.43013501236939        3.35875501414325        0.97029151049175
O            2.49836830241179        3.41263470254666       -1.35564396457800
H            2.94014831792924        2.61962988090033       -1.04161646355151
H            1.90257724336422        3.12744137211748       -2.08060981315124
O           -3.22556894395613        2.30717567853541       -1.06820252618944
H           -3.88737877735017        1.98549965708383       -1.68888480915020
H           -3.68477518111305        2.58302060542343       -0.27024370451179
