37
 energy: -59.879114909939 gnorm: 0.000218710954 xtb: 6.7.1 (edcfbbe)
N            1.09718124682841        0.38731733380012        0.59814133398443
C            0.62320242760017        1.55377759273782       -0.16882232716760
C           -0.89140200631160        1.54673647219196       -0.35716712973680
C           -1.43837837544590        0.22661614590729       -0.93025189859378
C           -0.47150234310467       -0.43307485078892       -1.93183713683118
O           -0.52290606363032       -0.10553652877475       -3.13467958996488
O            0.34223828264984       -1.25992996605685       -1.44879595692070
H            2.13278884997076        0.40024102731989        0.62546526798728
H            0.69231205315795        0.36531903956204        1.55355315976344
H            0.91678408972064        2.46812593445101        0.34593259065935
H            1.10164938607226        1.53629643845277       -1.14811021677392
H           -1.14080788809492        2.36004824416896       -1.03887326569430
H           -1.38816162443869        1.73729891746692        0.59489985528040
H           -1.61039352221311       -0.49505837358999       -0.13017190674069
H           -2.38389490993454        0.40971582858315       -1.44207128329465
H            0.82111603283317       -0.46804669224727        0.07282726801704
O            0.98496657471646        2.13576137545099       -3.74871960193464
H            1.25629677002614        1.79892131988487       -4.61953293356673
H            0.32930799400082        1.47344987677561       -3.46701495902023
O            1.42362370569720       -0.07017567644137       -5.38292348735420
H            0.74637622886997       -0.35896484550604       -4.75317617010721
H            2.28381029957528       -0.29892306953812       -4.96540528137677
O            3.71478288052701       -0.44398918320006       -3.92072612681691
H            3.72679531988211        0.41729075057762       -3.46296239002500
H            3.53361185169927       -1.09172258836658       -3.20603436279201
O            0.02223835809774        0.33953536624269        3.17296802274934
H            0.37616708743441        0.91006067023551        3.86227693067144
H           -0.17611842516124       -0.51064473052791        3.57537683066932
O            3.37274056661464        1.95764399711188       -2.47780021076405
H            3.85813693186610        2.75652429275329       -2.70361422956865
H            2.48658688982843        2.05593926542330       -2.89256447258301
O            3.04270435129848       -1.82535489016906       -1.67050242716889
H            2.07092971715521       -1.76121610929149       -1.68004072814495
H            3.33701707279502       -1.13992428774290       -1.03909260685038
O            3.74560779624614        0.45181996015942       -0.16676999115925
H            4.64177250297891        0.59259263905890        0.15048770263112
H            3.63779989016463        1.00736130374078       -0.96095827142778
