34
 energy: -56.705955186301 gnorm: 0.000329593761 xtb: 6.7.1 (edcfbbe)
H            1.04240443186577       -0.05087579894334       -0.63067211282742
C            0.17657114170872       -0.71133819203349       -0.57722523025415
H           -0.85492365573172        0.41736573832620       -2.00358920084295
H            0.36242714107041       -1.60109588735780       -1.17844840418771
N           -1.01216954838658        0.00841951348321       -1.08344266143423
H            0.80196664302307       -1.59986767480863        1.28791773561737
C           -0.07052937790992       -1.09918251104092        0.87269544670720
O           -0.81256019795655        1.15959938180438        1.26384900418925
C           -0.40830529723413        0.09346079823239        1.79471549918186
H           -1.16919843136693        0.74437497915808       -0.34655803720187
O           -0.29196746236937       -0.09109186286656        3.02519668619170
H           -1.83000737380400       -0.63354520909039       -1.10053686412569
H           -0.91083576704177       -1.79097934301386        0.94796373274825
O            2.92203694112492       -3.77805579241320       -1.02440593857981
H            2.68620176625035       -3.62675263797028       -0.09127693573985
H            3.46241525305687       -4.57359329825670       -1.03679921095610
O            2.12675481043129       -3.59703197475942        1.61543548834068
H            2.54115522308166       -3.73081548594637        2.47142487411911
H            1.19983458178231       -3.90141364209102        1.70293740662630
O           -3.18245080724304       -1.76843098036979       -0.95792248320087
H           -3.78170642802462       -1.85663752551642       -1.70740864832310
H           -3.72003636262333       -1.59783590791415       -0.17900348882331
O           -0.48338545049368       -4.40913614622605        1.84077665513465
H           -0.68657467166719       -5.31706892361374        2.08520158600862
H           -0.86924120850408       -4.28256612242573        0.93878981792984
O            0.55658549528404       -3.42437729042117       -2.37066474949880
H            0.65388966619443       -3.74017201914503       -3.27288192627681
H            1.41700474586033       -3.56746290572105       -1.93011571756155
O           -1.59892688766754       -2.50023419584793        3.64230457098228
H           -1.10444804121826       -1.66708585193032        3.54613503149070
H           -1.15479107161698       -3.14025777316818        3.05508141148576
O           -1.48996641498669       -4.05626748523255       -0.62725182767009
H           -2.08285225616998       -3.29291298089789       -0.72243367210949
H           -0.75761412862058       -3.89195799198142       -1.25358683716896
