37
 energy: -59.871536481455 gnorm: 0.000644411728 xtb: 6.7.1 (edcfbbe)
N           -0.88253938907765       -1.12025456608405        1.34487410703048
C           -0.88482708386323       -0.87118183003601       -0.10887183173414
C           -0.11509515495003        0.40619784420559       -0.42554861116358
C            0.00750028377126        0.64437075055675       -1.92437581895908
C            1.04470075547223        1.74717020985539       -2.26516962137731
O            1.99974081440996        1.91526416465598       -1.47566354185762
O            0.86172013907532        2.38093916445676       -3.32977032738875
H           -1.28986814239269       -0.32556844363203        1.83872549917155
H           -1.40292749201144       -1.98980793510569        1.59780093509000
H           -1.90764536985441       -0.78419087804550       -0.47482896981217
H           -0.41270414281333       -1.70927688397792       -0.61869020611017
H            0.90373437886705        0.35399805847329       -0.03708369740874
H           -0.59710140278052        1.27790796822166        0.02349839281159
H           -0.93864881394300        0.93284649836522       -2.38523288342843
H            0.36059398363434       -0.26295060188919       -2.42065837674744
H            0.10645453559610       -1.25326888382686        1.67064371019380
O            1.65604853619832       -1.75876432359433        2.13610823385799
H            1.78923057204660       -2.45079795965312        1.44942624936174
H            2.38419209563703       -1.13930577697201        2.05663824874187
O           -1.39500613200751       -3.94072240493678       -1.93153097765986
H           -0.58558850046661       -3.49292209510166       -2.22164696060825
H           -1.15613587647959       -4.35752404499396       -1.08303825245701
O           -0.56288917063388       -4.94193200742042        0.57864214030403
H           -0.66683719227063       -5.86623348884781        0.81872523026593
H           -1.08932968522310       -4.42195386006537        1.22264641630991
O            1.17548289552901       -2.72919735257526       -2.19738480116796
H            1.52822084404671       -3.03747076711407       -1.33709992480501
H            1.87839365210039       -2.84848900209029       -2.83886088363395
O            1.84252734152839       -3.73565791765770        0.30984195154565
H            2.51005688288741       -4.41842956870933        0.41819798362435
H            0.96966325857609       -4.18137539718407        0.40953834870942
O           -1.84574364893235       -3.43380478237390        2.44570879361612
H           -1.13550410979488       -3.41206129190322        3.12656237284343
H           -2.67572352919694       -3.60762095352237        2.89552628550638
O            0.26284054990447       -3.16240027482806        4.10112270772424
H            0.87646048614535       -2.69838614435610        3.50298617470828
H            0.29484883132053       -2.70141922230781        4.94268590488433
