37
 energy: -59.883801185896 gnorm: 0.000131422462 xtb: 6.7.1 (edcfbbe)
N           -0.89370796289220        0.43884309933826        2.12224644485334
C            0.41729374428756        0.92744710836543        1.66796936206350
C            0.30324609259194        1.70152012913482        0.35762294881027
C           -0.08151507543309        0.83386761815439       -0.84537770492315
C            1.00849201296400       -0.21875427719500       -1.15195366111506
O            1.95985356394711        0.12712194695519       -1.87982126636195
O            0.87502869990248       -1.36292496866193       -0.64447435736135
H           -0.84937925738322        0.10408580963429        3.10750305500741
H           -1.60514645858429        1.20178646625927        2.07716297453520
H            0.83219730351734        1.59202221919276        2.42642366631274
H            1.09263331499282        0.08086992104393        1.52916983473521
H            1.26752596732952        2.16593103011062        0.13985657337043
H           -0.43791109938790        2.49501206444131        0.47426898749775
H           -1.03456373389929        0.33149019516013       -0.68541467285301
H           -0.15990953599604        1.46932916832472       -1.72950647896483
H           -1.19399262940359       -0.37458278565420        1.54027388114867
O           -3.00824837689360        1.36382195198548        4.91607636589816
H           -2.29262972274699        0.70389218331078        4.93841917870492
H           -3.79431467708219        0.91789983903302        5.24351908040213
O           -3.30356345318948       -1.23081584380924       -1.10749075724529
H           -3.20350768636603       -1.55538678153614       -2.01751364805513
H           -4.25013086083092       -1.15597072105378       -0.94764202969553
O           -2.77696291641502        2.42452865071958        2.38354126165029
H           -2.88293485636494        2.22650008968508        3.33565806873091
H           -3.65553812455950        2.39020061912425        1.99584666197462
O           -2.90682486742560       -2.15012024690752       -3.72692899216353
H           -2.35818429115784       -2.93709837371777       -3.80239997606040
H           -2.58256849637632       -1.51475833805752       -4.37278961666908
O           -1.35759950588024       -1.89562377086124        0.74608550333653
H           -0.51462645754620       -1.82610024637403        0.24127397098421
H           -2.06655390253993       -1.78048044234622        0.08773312025037
O           -1.05598313878232       -0.64414414109266        4.66261793969319
H           -1.38088682585164       -1.48996509629685        4.27960496837078
H           -0.29385527198333       -0.86348364369459        5.20376493269089
O           -1.88762012958393       -2.82874234952940        3.31392937625568
H           -2.81504745307203       -3.07551135325028        3.25384011562794
H           -1.59717993184270       -2.64453472985786        2.40214688865067
