25
Coordinates from ORCA-job 02_Aminobutyric-acid_zwitterion E -592.389337306260
  N           0.59926959004308     -0.92209736513067      0.48510839506131
  C           1.14973757276217     -0.82901796156430     -0.90594673054464
  C           0.83515360733146      0.52322903104331     -1.52272059888453
  C           1.55332075372675      0.71338250445578     -2.85437395289796
  C           3.07966907779002      0.86053538637368     -2.76363674026457
  O           3.57843861582391      1.13424247826435     -1.63781336325316
  O           3.71771875057195      0.71950781094109     -3.83855807211798
  H           1.06325544261357     -0.22273425278991      1.10332981523363
  H          -0.40652628578939     -0.74999783180643      0.50073364368292
  H           0.71684733711670     -1.64501033356558     -1.48272284062109
  H           2.22303867075063     -0.98466757374117     -0.82007159611730
  H           1.13630571610758      1.31458974035922     -0.83418284733743
  H          -0.24520390058917      0.60813381006393     -1.67039279961036
  H           1.32920936803816     -0.10726725307660     -3.54036902405463
  H           1.18169646914443      1.62130140583270     -3.33861015698085
  H           0.75521076889577     -1.84786229721214      0.88445518605071
  O           2.06227975165457      0.93657108530601      2.02362163189177
  H           2.71783124213369      1.35064028742477      1.44565074895123
  O           6.42276264676610      1.18512008288075     -3.82799382970573
  H           6.58957532211578      1.25038266920450     -2.87092719075634
  H           1.53801141352804      1.66916825642402      2.37419094183684
  H           5.45048632415881      1.01775734884074     -3.86137461152422
  O           6.16340729342871      1.30845445195164     -0.97806689388381
  H           5.20420762635340      1.22357700096884     -1.23415906783770
  H           6.39537682552253      0.46899151855136     -0.56370004631579
