37
 energy: -59.881655901600 gnorm: 0.000597793806 xtb: 6.7.1 (edcfbbe)
N            0.23255332319930       -1.53208217390382        1.89061400625864
C           -0.24951525300828       -1.17369202661837        0.54848911712459
C            0.52175105897418        0.02563391853279        0.00838011423135
C            0.13568369757193        0.33832707333439       -1.43355514818863
C            0.77655338199808       -0.59870785544743       -2.47375763226323
O            1.84664641811090       -1.18688916370468       -2.16815772251036
O            0.21064720917827       -0.69666572013399       -3.58072584479924
H            1.23820383745978       -1.79295494593976        1.84184772917373
H            0.16355738775720       -0.72356833491440        2.55127424527396
H           -1.31310833503059       -0.93715791441002        0.59086355469564
H           -0.10940638224842       -2.02182092067489       -0.12305287310202
H            1.59095289117276       -0.18968033905642        0.01723528754418
H            0.33388917667430        0.89849438828255        0.63417778525794
H           -0.94375642534158        0.31064840025407       -1.59003590077743
H            0.48078200972018        1.33775544080041       -1.71315507677975
H           -0.30330972851442       -2.33134766695941        2.27515079012522
O            2.63195949028095       -1.19937324687235        4.35431501427971
H            2.81702255277105       -1.69346771191535        3.54037604437184
H            3.48123967853193       -0.93091279464517        4.71342868217584
O            0.46282541763682        0.40999034904634        3.79761627426023
H           -0.13638604078644        0.44112791974395        4.54792917844535
H            1.27153998665756       -0.04740178319673        4.10421157260583
O            1.44823889853982       -2.25558090240253       -5.53717251072944
H            0.90645152783811       -1.73456266280979       -4.91126385828968
H            2.36178866500022       -2.01931667164691       -5.31011596626829
O            1.98616441623273       -3.41642340149086       -0.56060494044850
H            2.08582599809837       -4.19519398245248       -1.11333125807516
H            1.95842576056618       -2.64859776442297       -1.16023323029178
O           -1.20862913484509       -3.71536360083954        2.89873215015663
H           -0.84467234380585       -4.16906824358556        3.66541752719634
H           -1.57924697518378       -4.38212062564102        2.31467138545118
O            3.79005312315630       -1.39734770094514       -4.08801652437354
H            4.51476266877949       -1.89407250227904       -3.69308713217064
H            3.11158150419409       -1.30316682652518       -3.38659500568672
O            2.95817630060445       -2.18170399637652        1.66892405568677
H            3.48098053128282       -1.50574817781936        1.22817881302547
H            2.72624870666436       -2.82372583230700        0.97157429737575
