34
 energy: -56.707930990012 gnorm: 0.002792092806 xtb: 6.7.1 (edcfbbe)
H            1.32629394582408        0.12538163472777       -0.06356866064617
C            0.36177565957782       -0.15219036748088        0.36283044953081
H           -0.33726059496516        0.07172736731991       -1.61276924267674
H            0.36301608828764       -1.22152859941990        0.57702380413649
N           -0.69406959281427        0.17346879552256       -0.61995195983093
H            0.89405466682380        0.36517746632172        2.39476236495965
C            0.13709301646912        0.62444753418977        1.65733449715445
O           -0.40010033862194        2.61840561149700        0.43773675506589
C            0.16569160091435        2.14934204491137        1.45391728591407
H           -0.89489293391892        1.18570612228504       -0.47080670899452
O            0.73582924139787        2.84761853297061        2.32367911721049
H           -1.53472090512605       -0.38264475371792       -0.47200378868097
H           -0.84023330940078        0.38268187028874        2.08219097975837
O            0.81635914154823        5.62055342230466        2.34343573504482
H            0.71711622286632        4.64775383107572        2.33669813929388
H            1.69523548933821        5.79318016618181        1.99061255747726
O            0.47136553388358        0.39012197581134       -3.01474381077082
H            0.40386988313399        1.36057615411177       -2.95894183051501
H            1.38520861856389        0.17992437759968       -2.75863806117230
O            2.63078705151607       -3.46889198594832        3.13422900657640
H            2.64297156468497       -3.16641656489879        4.04755534946416
H            3.44505998437264       -3.16145883877430        2.72693567853523
O            0.26289136257086       -3.18313840664825        1.56692450906792
H           -0.39203242536832       -3.79907963752699        1.90860018885861
H            1.07306921100206       -3.33670510752250        2.07937617538170
O            2.99578178470567       -0.05593192729672       -1.87262518052497
H            3.67427895021641        0.61419126148448       -1.99297375097360
H            3.43156371244941       -0.91323237777202       -1.91355023031499
O            2.27606611156704        1.52933678441287        4.21410892286161
H            1.75997549429767        2.04893484312044        3.56721725980570
H            2.31867418124860        2.06832654963023        5.00975123944255
O            0.17908580892026        3.05856712316763       -2.27407738513293
H           -0.42949003849777        3.72065484629565       -2.61239298037809
H            0.06289881234626        3.05261325190372       -1.31077442486278
