37
 energy: -59.880954038999 gnorm: 0.001442324227 xtb: 6.7.1 (edcfbbe)
N            0.86311150239465        0.07931155909434        2.17052872573545
C            0.73983697163749       -0.73950215601207        0.95040135431784
C            0.69753665991566        0.11319257107620       -0.31127506761384
C            0.52659674058966       -0.78382422234424       -1.52911316214640
C            0.59658088818802       -0.04878702018495       -2.87515083733527
O            0.77489748001648        1.17684657653703       -2.91312928689442
O            0.46551882225867       -0.78428806895624       -3.90459968426467
H            1.72126583300035        0.63051259802402        2.13963726300664
H            0.05956780461297        0.72965824248083        2.26243915309438
H           -0.16942850587242       -1.33681398344621        1.00879032136187
H            1.58603729500582       -1.42399368188887        0.89669912599508
H            1.61734166734499        0.68857184256344       -0.43534330681657
H           -0.13064813573106        0.82280289061473       -0.27624816055115
H           -0.43489783632336       -1.30038868281228       -1.50057797415116
H            1.30715010094597       -1.54762930179384       -1.55442042055717
H            0.89538875584708       -0.55936117802391        3.01271398330775
O           -1.24595591632650        1.87682797368262        2.53873382452208
H           -2.09157835305507        1.60365128759176        2.90502648704298
H           -1.10057096871847        2.79399785921499        2.78515466828237
O           -0.82469416678886       -3.63245021785259        0.53028760687833
H           -1.66050497031925       -4.07641467894430        0.70198592128580
H           -0.60065374502769       -3.83780071841238       -0.39901957096890
O            1.28993751606197       -3.77018078294666        2.30836730359090
H            0.54956104019318       -3.73534524326719        1.67320957812844
H            1.83608358459867       -4.51783661159993        2.05909775126444
O            0.97539497301580       -1.75528312191199        4.14681174207524
H            0.16768202963766       -1.98591239205012        4.61522690044668
H            1.19191554924255       -2.52081917932306        3.58336720966869
O           -0.35625760052965       -4.20051039807961       -2.10900903354216
H           -0.97900792313354       -3.66886233991821       -2.63724085651534
H            0.51405745968464       -3.98061868681211       -2.48512362612489
O            1.80315757188705       -3.13280204783457       -3.55426583456438
H            1.34498279129609       -2.28400502726822       -3.73688890993680
H            2.12059443436003       -3.45283999544801       -4.40337132396477
O           -1.69816446869920       -2.42230465570509       -3.78866418986556
H           -0.94295748008389       -1.80207908221452       -3.87434243956831
H           -1.99347540111074       -2.60675492587091       -4.68566823465644
