34
 energy: -56.710870832612 gnorm: 0.000482430233 xtb: 6.7.1 (edcfbbe)
C            0.87003563848488       -0.55404184842680        0.73868769149454
C            0.15267801946881       -0.77076374530134        2.08567005115261
O           -0.09888497777746       -1.94913740014176        2.41267502448228
O           -0.11579588589260        0.23481340852397        2.78510359501294
C            0.58904247841742        0.78966347696248        0.07892279701243
N           -0.73948677309899        0.82765024291336       -0.56080693165730
H            1.93517402763493       -0.63310388858084        0.96580281839650
H            0.60786665400662       -1.39320753835354        0.09378425040002
H            0.63396596497980        1.57521453728031        0.83375727549674
H            1.34716980550962        0.98014888472485       -0.68088225045598
H           -1.50647705144367        0.63832043128242        0.12268302404745
H           -0.80801927191669        0.11880606474516       -1.29341236003970
H           -0.90326418166980        1.77219877721535       -0.98335596981840
O           -2.79258749327316        3.05461502279903        3.78940288010099
H           -2.93440389282247        2.10077430229372        3.89066301883469
H           -2.07195312659888        3.12464138767317        3.13170530166946
O           -0.70119460742927        3.97196261544553        5.36320610234668
H           -1.55224059461525        3.65582289552962        4.99692370179327
H           -0.88250605914311        4.83687771827673        5.74110995536457
O           -2.97155878491823        0.18155970730240        0.92164686084700
H           -3.85016216593982        0.49327740955154        0.68467027756617
H           -2.93140564536887        0.18439457961364        1.89742263555847
O           -0.26828341912954        2.99452375998497        2.61109351343869
H           -0.18039843335879        2.03164733135025        2.73556524753670
H           -0.01447635963939        3.38419879757126        3.45861240460524
O           -1.08158383843772        3.31051153969297       -1.69428979434712
H           -0.33107541033635        3.91109361236207       -1.70864553795224
H           -1.85017100406993        3.81822622442825       -1.41770448913995
O           -2.65640369409123        0.23430796946185        3.64671369057937
H           -2.77845351430688       -0.65072704847056        4.02579785931909
H           -1.68798126341942        0.28335992485845        3.48084848388823
O           -2.04438407705051       -2.41386862328625        4.28176141941322
H           -1.61181636632902       -2.79059132928202        5.05352148906473
H           -1.34090469642648       -2.31534520001231        3.60203696398064
