37
 energy: -59.868621573149 gnorm: 0.000259499926 xtb: 6.7.1 (edcfbbe)
N           -0.26850882356063       -0.44557687275213        1.67245211412936
C            0.61860579410549        0.27934005799229        0.73975250028139
C           -0.18661187835130        0.90173564877695       -0.39513736430674
C           -1.21480740601690       -0.04660792270729       -1.03522203365037
C           -0.71935580995998       -1.48542694946882       -1.26388589333179
O           -0.43037456350504       -1.85321498323754       -2.42466089546211
O           -0.65996996002407       -2.23829215577690       -0.26000461406895
H            0.24240006751096       -0.74661561384638        2.50172872129976
H           -1.07658763589846        0.14578492048553        1.95319436036716
H            1.16068063621396        1.05586117578549        1.27991637695576
H            1.33465816405893       -0.43441677228445        0.32937055061360
H            0.50789282290310        1.25299753031374       -1.15711525820480
H           -0.73397280047937        1.76946595970339       -0.02753901615664
H           -2.09661104349226       -0.12205486815363       -0.39561678739385
H           -1.52435323007679        0.37002757628624       -1.99365081588267
H           -0.61051012916008       -1.28366125051675        1.13107136848378
O            1.73384901856343        2.56630492785426       -2.75771494709657
H            2.11852495206672        1.86431798551220       -3.31961134390449
H            2.20676485845751        3.37469896394335       -2.97647970549345
O           -0.07452371039423       -0.38580149675571       -4.61636052090221
H           -0.21760843289472       -0.91399907687373       -3.79267853638853
H           -0.40678855649919       -0.92747278217050       -5.33854591512923
O            2.23373433942371        2.01915968189988        3.01662536667281
H            3.16381529543025        1.84539035306748        3.18620586285437
H            2.07675848627212        2.94537396546302        3.22275738652905
O           -2.18978806993685        4.31343451620910       -4.95229682352255
H           -2.58870761783752        4.72387844378507       -4.17881943032645
H           -1.71180027780201        3.53318374693681       -4.61202816420266
O           -0.84077836843753        2.19112444616456       -3.75102862368866
H           -0.66855721146926        1.33722906093162       -4.17970184029364
H            0.01436270217272        2.43205302508599       -3.34388044846110
O            2.53340385306085        0.47382575437260       -4.35563145474090
H            1.62243087501806        0.16660358633170       -4.53242780782487
H            3.01352721654705       -0.29111536224769       -4.02508428506028
O           -2.50725335837523        1.01544204187199        2.48652812949146
H           -2.44289718984466        1.83101223823448        2.99310388483622
H           -3.25405900782584        0.51906649969256        2.83326790296879
