34
 energy: -56.719960967822 gnorm: 0.000244798302 xtb: 6.7.1 (edcfbbe)
H            1.24769759883279       -0.40087787707537       -1.29424250185487
C            0.31726735616080       -0.09731542558788       -0.80962524571407
H            0.24326954245512        1.64063882523236       -2.00297120491077
H           -0.50927651565068       -0.66896928333434       -1.23297947280652
N            0.09380880653767        1.34018658376190       -1.02241649219682
H            0.53288963720999       -1.44037557759438        0.88652189927748
C            0.41903605727966       -0.37530917413127        0.68841433330101
O            1.86669820635207        1.52099756134222        0.98825047346899
C            1.60615855551632        0.34737056938956        1.37165034489557
H            0.78120908069201        1.81028947086304       -0.40328732187863
O            2.21907149740082       -0.25390077279378        2.26759008903464
H           -0.88340570235042        1.62101317916050       -0.71171543483167
H           -0.48956093589207       -0.03229329087601        1.18854351333574
O           -2.39419570567725        4.01126082551501       -2.13151763420773
H           -2.34974288788746        3.69108688252488       -3.05170925636670
H           -1.48954258025090        4.31354676446025       -1.92772308188478
O           -1.54469757382255        3.73545308268580        1.84539971542527
H           -1.51845305802211        3.65289651449452        2.80109471285486
H           -0.63617491420053        3.93851268479697        1.55342186020124
O            0.64613208316837        2.62099934989274       -3.42921917115907
H            1.51301502193105        2.63872159291456       -3.84264473258485
H            0.57308684002757        3.43046422834625       -2.88374679773536
O           -1.85866849013411        2.87565922396437       -4.61104401218290
H           -0.93546135256288        2.71802820299904       -4.33353297101271
H           -2.23067004612686        2.01499708039477       -4.82190277595169
O            0.30331356751621        4.66772928963169       -1.63582181958536
H            0.50327272631781        5.60064281848577       -1.74500293392376
H            0.54710457959057        4.43607216124906       -0.71945630322967
O           -2.35712140028446        2.09404977879020       -0.23845523569300
H           -2.55413600473947        2.75729736411484       -0.93964312290719
H           -2.21450466549213        2.62713961363407        0.56253697524992
O            1.07813367559439        4.11286983256392        0.97518331713290
H            1.42412270678013        3.20448952719272        1.06533734097866
H            1.71375229372234        4.68417039294721        1.41575294747868
