37
 energy: -59.884433154551 gnorm: 0.000168704789 xtb: 6.7.1 (edcfbbe)
N            0.78037013834353       -0.36160415031914        2.77915514604044
C           -0.18635051210398       -0.58808756126476        1.69068679992118
C            0.02056465753398        0.38272270535221        0.53116070925186
C           -0.69323438492913       -0.09923970602516       -0.73176804103434
C            0.01603441104752       -1.24828355229537       -1.46532912054751
O            0.90959110454420       -1.89551930441044       -0.86547716245247
O           -0.32949273315350       -1.47450902553204       -2.64488338276465
H            1.77184694504969       -0.35005891085960        2.39897125855203
H            0.59821279283616        0.51031551345272        3.27393521043981
H           -1.20335872195416       -0.49953365756471        2.07466417077057
H           -0.05245164180782       -1.60361431448504        1.32206640791536
H            1.08501019866213        0.47082611678825        0.30905925413262
H           -0.35790815263151        1.37271457342329        0.78776306557651
H           -1.70450384299535       -0.44690810443712       -0.50500718538807
H           -0.78681804730215        0.70663420825081       -1.46247599458567
H            0.74725552845777       -1.17996061950216        3.42876675543082
O            0.92675483616895       -2.84613365946858        3.87159489261204
H            1.50368696554453       -3.12243292309688        4.58889873746939
H            1.34215840627423       -3.15109150397790        3.04606151687106
O            4.13715261626277       -2.12864833710420       -2.99622149096988
H            3.29406204488396       -2.09986500607646       -3.48852866649112
H            4.83545499086452       -2.13768503016623       -3.65758276907539
O            1.69948835298792       -2.21657630474770       -4.30117607187927
H            1.38045918364704       -2.95516344681498       -4.82912089231040
H            0.94979816442589       -1.95380293498002       -3.72592941278462
O            3.28272665406356       -0.48370920684779       -0.83566498400403
H            2.44744000408349       -0.98612706902029       -0.85913363013207
H            3.82882003313339       -0.90448104321389       -1.51591003721609
O            2.77370261978938       -3.98740711528759       -1.31281857158698
H            2.00806620732887       -3.38812871219502       -1.33686393461330
H            3.44859399388088       -3.52897435073732       -1.83649129257939
O            2.19924513270286       -3.16435782499429        1.37448347964539
H            2.66502661181022       -3.84595533983736        0.87470458617329
H            1.68288615514573       -2.69828591113835        0.69689709742262
O            3.30998414998343       -0.69399778586702        1.90586964847605
H            3.16065439461757       -1.65777062171465        1.85003923722917
H            3.47174774274069       -0.42750808335673        0.98425866655357
