37
 energy: -59.865583123698 gnorm: 0.000244932329 xtb: 6.7.1 (edcfbbe)
N           -0.01144918376007        0.20059357030468        1.56551429713692
C            0.34545681460205       -0.41424706110671        0.26941454338316
C            0.28145092713190        0.60616656652870       -0.86097475075780
C            0.60315849426440       -0.03563836884816       -2.20408477701790
C            0.67840884586430        0.99166085804632       -3.35458987667500
O            0.89722495314163        2.18543515739029       -3.08051576194729
O            0.53219687680872        0.54208251999977       -4.52372831742030
H            0.49011064428096        1.08422568534829        1.67821025131168
H           -1.01554903979238        0.37958719256532        1.60898796081885
H           -0.34680146762735       -1.23115898536440        0.05917160384355
H            1.35441287030013       -0.81893222733794        0.34199488051003
H            0.99229044926820        1.42118959984683       -0.70508370222543
H           -0.71500595619102        1.04722277926671       -0.92796619176112
H           -0.13449317185383       -0.79223761333189       -2.47097245017726
H            1.58243943669974       -0.52084438215307       -2.17585671631437
H            0.28415262569257       -0.44789282024415        2.36994520142703
O           -0.81997501843260       -3.21611503120706        4.56108539226904
H           -1.12429776320549       -3.08342137560521        5.46367244176153
H           -1.57417462897032       -3.51583661181067        4.04423686419455
O           -2.53919807135756       -2.22831796444887       -3.23876281224971
H           -3.19384632181313       -1.63376730954479       -3.61631833045298
H           -1.76956854393843       -2.19925323050903       -3.83840013137059
O            0.55019927277929        0.55863419571690        8.08558167997307
H            0.53498363018266        1.21536798280774        7.38155851579082
H            1.33148776666012        0.01449171901639        7.94355795758609
O           -1.85682450733218       -2.69630681071847       -0.55355004519893
H           -1.71345349615797       -3.64710112917217       -0.54999401743654
H           -2.15601966124203       -2.48267858752464       -1.45168130638562
O            2.73364355589409       -2.54335730734601        1.62190976060533
H            3.68457540948056       -2.40659547341021        1.64875647236041
H            2.58142814977869       -3.43257367411880        1.28866607906825
O           -0.42384764826817       -1.90282732224149       -4.97882519450438
H           -0.04177963746831       -1.00564827966485       -4.81260780053376
H           -0.45075440108857       -2.00110060137872       -5.93534285711849
O            0.95836873751078       -1.37800826909827        3.45313695991092
H            0.37495393498077       -2.05455908129432        3.84019407352377
H            1.62332712342582       -1.85113330906568        2.92438710444432
