37
 energy: -59.877289148741 gnorm: 0.000536556125 xtb: 6.7.1 (edcfbbe)
N            0.76262908008656       -0.11843333374407        1.90238283597009
C            0.52786949431213        1.13454885521317        1.16500820776641
C           -0.41469186164707        0.90392148120869       -0.01439789192367
C            0.24351475718882        0.25606529951463       -1.24318519747507
C            0.49733192309436       -1.25993946719948       -1.17032592879842
O            0.00602968064773       -1.99132043977597       -2.04005655198836
O            1.23404628519487       -1.68697423804732       -0.22752400099095
H            1.56879541342637       -0.06823414045779        2.57015890188490
H           -0.06561977097084       -0.38720711905579        2.43162130608118
H            0.10910051319154        1.87230177745965        1.84869977750841
H            1.48009121439589        1.51510668941178        0.79707590242281
H           -0.80016782360883        1.87212267603022       -0.33456215170528
H           -1.26994454760628        0.29960680682735        0.29627968673431
H            1.20659748311856        0.73368314179649       -1.44046858549284
H           -0.39064122776386        0.40739981985584       -2.11914571816033
H            0.97590555515567       -0.85800293514623        1.19285948847997
O            3.63621458588283        1.29404909773843       -1.92108646427181
H            4.39801616960032        1.20556927133278       -2.50013642339157
H            3.75218657529269        0.63570049445067       -1.20688438157612
O            3.73824335297247        1.67033557389511        2.05925811295232
H            3.63800821770898        2.46224453046734        1.51332067359303
H            3.71142365507294        0.93683059295334        1.41387854756903
O            3.63867585821807       -0.42835397341474        0.21618162268571
H            4.19023630946568       -1.17436947931499        0.47577263994020
H            2.75981473039882       -0.81823717210386        0.03536141085111
O            3.10010154428154        3.33891152765586       -0.12337128879958
H            2.84994114965365        4.16522135315264       -0.54202019570295
H            3.28327786135125        2.70405840828569       -0.84059310828070
O            1.67522019060260        1.74129964917960        3.98630610853432
H            2.43326298689113        1.83003031301203        3.37898111010460
H            1.99851772504881        1.22896821992240        4.73238592107964
O            2.94303138946917       -0.85847123362885        3.39088761848428
H            3.06321277442266       -1.63550430912710        2.81746709760041
H            3.67045162295490       -0.25772558390691        3.19367685703440
O            3.05834851951536       -2.97574064686732        1.51385140827731
H            2.37026971906157       -2.78338734179177        0.85760691041718
H            2.97258589386968       -3.90539916586532        1.73812774254133
