37
 energy: -59.889794190040 gnorm: 0.000440308112 xtb: 6.7.1 (edcfbbe)
N            0.01786547101606       -1.30065065802654        2.12808441083085
C           -0.50347014275735       -0.32271595119371        1.16341564565639
C            0.59657200166848        0.10893175440583        0.18974386971580
C            0.03743244073671        0.50005227763469       -1.17439422456998
C           -0.48863922446918       -0.68510253441755       -2.01809757378435
O           -0.38567336984423       -1.84970396427856       -1.55191390545120
O           -0.99347906396582       -0.40980040870069       -3.12258646778496
H            0.43893218085444       -2.09223834797186        1.58632057768594
H            0.75474883134741       -0.91643570907448        2.74336302225643
H           -0.91064349740038        0.54370230932626        1.68460508812455
H           -1.30889420537389       -0.79459668830405        0.59938766154451
H            1.28284860315685       -0.72304620594853        0.03180360360012
H            1.16087773886778        0.94963953200736        0.59336048259714
H           -0.79000926330098        1.20780648009112       -1.08515375005114
H            0.80388272796208        0.98050235138184       -1.78788186027482
H           -0.73381240851902       -1.70713142651023        2.72227430172340
O           -1.23161657827436       -4.44802004778966        1.59530821342837
H           -1.39071591862984       -3.99290843712052        2.44060740117666
H           -1.81083761543644       -3.99372201399969        0.95657561317982
O            2.20869550469908       -1.06321114630044        3.82768653658179
H            2.84040072188112       -0.41281091103020        4.14302948658932
H            2.68015339062971       -1.62743800271711        3.18350284119842
O            0.94176353062140       -3.30375198734707        0.47835354249977
H            0.26154441127982       -3.92336081154821        0.82988864686548
H            0.56027876264053       -2.92179633731044       -0.32948734507145
O            0.54346936733667       -2.65723619902522        5.40800208360188
H            1.15122643154256       -2.06153466391407        4.92846891508351
H            1.00797943720798       -3.49283951102168        5.50547108677949
O           -2.55493965827692       -2.91973172799176       -0.30060303951867
H           -1.79771158872330       -2.59013719146976       -0.82394656824992
H           -3.20236938685084       -3.23756745505035       -0.93425668108434
O           -1.63000053972961       -2.70831241914043        3.81339937898806
H           -2.44075053749351       -2.46830838261307        4.26738508597988
H           -0.91475098495120       -2.73756626512097        4.48936018427147
O            3.28597627146801       -2.53909532040772        1.79093647945764
H            4.02133341621421       -2.43755716402570        1.18341870379349
H            2.55595474285869       -2.94115481544534        1.28883455263574
