37
 energy: -59.882009942395 gnorm: 0.000431722235 xtb: 6.7.1 (edcfbbe)
N            0.83503031695935        0.09705719550958        1.69932404017698
C            0.22120468541286        0.81374788610798        0.56950461281441
C            1.22415419783395        0.93568122787222       -0.57702244157857
C            0.53759688959243        1.23275479785015       -1.90521149748612
C           -0.20721029917362        0.03379419853315       -2.51003261998206
O           -0.21918738872942       -1.05746424112758       -1.90317302454950
O           -0.77636124848596        0.22687843550949       -3.61574305671640
H            1.02690437346267       -0.87365564210401        1.38354736266405
H            1.72406777848908        0.55821895677474        1.96713458159780
H           -0.10494738391232        1.80237360456447        0.89150475914147
H           -0.64796360214272        0.25420376749191        0.22149182134381
H            1.76543827492819       -0.00552146783593       -0.68336494490324
H            1.94511590311003        1.72406344720031       -0.36158657180727
H           -0.18999923416335        2.04179740234507       -1.80795705952773
H            1.26142104654604        1.55031059414051       -2.65932056279359
H            0.20334445583100        0.06969306589697        2.53299988683234
O           -0.72719952949071       -0.06387424070603        3.94544504480398
H           -0.18470933375663       -0.55216224440291        4.59044160532923
H           -1.58271867017152       -0.49981089647034        3.91754700754335
O            0.95475312401393       -1.56935716517497        5.58608724079567
H            1.67695773236408       -1.17968983608891        6.08772834649960
H            1.23068992701042       -2.45281053297570        5.32332900490352
O            0.94071955594808       -2.31407657347717        0.33822563294353
H            0.56808993086142       -1.95068372093670       -0.48274947387380
H            0.45225286658643       -3.12260895220320        0.51597677847342
O           -2.36419826612200       -1.59501532379473       -4.91252238746618
H           -1.94229871337739       -1.70220712347890       -5.77111485918572
H           -1.82749766464979       -0.92618179624554       -4.43534223037000
O           -1.85174069949464       -3.20573459576474       -2.61787245759206
H           -1.25655511259212       -2.47626480303261       -2.35437878158118
H           -2.25696618295414       -2.88636970459507       -3.43871896856151
O           -0.20186767048698        2.58064361002600       -4.92242129326443
H           -0.42225831063178        1.73246170998082       -4.48662868764631
H           -0.93695767490274        2.76899900395533       -5.51443492965706
O            3.20466160933735        1.41709471016924        2.40704963115890
H            4.02842348094946        0.93128961774985        2.50591287351837
H            3.19540483597983        2.11743162866333        3.06624961798789
