37
 energy: -59.889223813879 gnorm: 0.000240046379 xtb: 6.7.1 (edcfbbe)
N            0.07162770138189        0.35119897791736        2.38329892224907
C            0.76164134340995        1.24863132298261        1.45034770895647
C            0.00882978180948        1.31503727651961        0.12261713645604
C            0.22618264892640        0.10242867541332       -0.79499199856055
C           -0.60989417791131       -1.16628192841459       -0.51447296010986
O           -1.12225782381375       -1.74464422194012       -1.48731407325340
O           -0.69477520213893       -1.57517309626292        0.67424570836029
H           -0.81749644740036        0.79064810497426        2.72794677156662
H           -0.18763075298359       -0.51160258693429        1.85465584234112
H            0.81890347260956        2.24287791995683        1.89434855008215
H            1.77602088004411        0.88604423232667        1.27663128898645
H            0.34742073844043        2.19651229216220       -0.42310431172101
H           -1.05837974128323        1.43792670870092        0.31708808432347
H            1.27426975511607       -0.20944970847231       -0.75976969462627
H            0.00129382616482        0.37322916834143       -1.82892194219926
H            0.63848294625481        0.10766799337209        3.22217648318046
O           -1.58500538760606       -0.92590807226461        5.04592019098535
H           -1.57186243661217       -1.55800771660375        4.30233133870225
H           -2.02113520980555       -1.37089679722977        5.77662538883791
O           -1.42191131618328       -2.81745232418041        2.99731938412813
H           -1.27105789654256       -2.43719655442157        2.11277761703792
H           -2.06904578701917       -3.51862151329911        2.88291966309296
O           -2.12742607599631        1.41716614150395        3.58111051083921
H           -1.70807073163267        2.17661267087940        4.03249059973806
H           -2.13598286837825        0.69518590366207        4.23369369470013
O            1.25170792105256       -3.01689478686849        3.80839123830303
H            1.74643113990530       -3.32361544872285        3.04509151601380
H            0.31112361982390       -3.03610943703258        3.54987888747857
O           -0.61269203157965        3.29612014729701        4.89812929301801
H            0.29254806821990        2.97685667479140        4.70702462515886
H           -0.65106092247046        3.44585483591832        5.84681956624959
O            1.12945479848408       -0.46474718912858        4.80252681121632
H            1.38154867080401       -1.37607577578444        4.56521052459530
H            0.20075637092023       -0.53708544864710        5.09637673079822
O            1.87563012427964        2.19971434519538        4.47803715667242
H            2.71658711512112        2.45907275650701        4.86113915207335
H            1.74307388655578        1.26126445783730        4.70045559441202
