34
 energy: -56.706766930738 gnorm: 0.000483008682 xtb: 6.7.1 (edcfbbe)
C            0.16525267682768       -0.60553834780132        0.47465736774036
C           -0.01419465390728        0.05670167985232        1.87185145300703
O           -0.69869649047534       -0.57450371067262        2.70659144743000
O            0.55683553441014        1.15019067359078        2.06320404326022
C            0.07761895349951        0.40871983987986       -0.65299739575698
N            0.39244049989796       -0.21105307916729       -1.95044693553621
H            1.15413259505096       -1.06851687129757        0.49939065789177
H           -0.59010967890905       -1.38455136351069        0.38196304651365
H           -0.92916887436666        0.82331636983153       -0.69104442279933
H            0.76526205519104        1.22864428642957       -0.44300081861616
H           -0.27748796214093       -0.98262034258602       -2.15793062006785
H            1.34841298951022       -0.57487642198598       -1.96826434710292
H            0.31729774078928        0.47996458949309       -2.74600893064908
O            0.79043820079481        3.47706091613035       -2.56281537172434
H            0.91969130967137        4.41998103570448       -2.68311157930081
H            1.65913302168104        3.11037700178249       -2.29670380222598
O            2.70579556675140        0.04143511175446       -3.59512250814341
H            1.96433389762952        0.44941302714697       -4.07407535205001
H            3.33775159969791       -0.25113172999877       -4.25553334070429
O           -1.67503871673910       -3.65575112323431       -0.35061335760224
H           -1.07190552821428       -4.37402846348363       -0.13539347254729
H           -2.29030192851419       -3.57211208132309        0.38198577439645
O           -2.34349423705023        0.41691368831738       -3.71731837493203
H           -2.21558648904641       -0.47910577259508       -3.36835375836295
H           -3.17810781452903        0.73774625287557       -3.37050786090328
O            3.15255356154126        2.21739091486754       -1.96688417871088
H            3.09255083334567        1.41309511245032       -2.52672848165045
H            3.36033208597060        1.92174260811174       -1.07762773158083
O           -1.46554340175660       -2.13486579242016       -2.68233856385243
H           -1.15481624954081       -2.76024056304161       -3.34519511388677
H           -1.66262367725490       -2.65096209830317       -1.88414722147754
O            0.24076406157944        1.35355371186092       -4.16522719194556
H           -0.70749708744297        1.17960318281975       -4.27881922120844
H            0.32185760603655        2.22769275849821       -3.73722883692107
