37
 energy: -59.863994102824 gnorm: 0.000333344908 xtb: 6.7.1 (edcfbbe)
N           -0.40687468245323       -0.42380586278262        2.10661949193830
C           -0.24755001200999       -1.15063194848304        0.83112751076689
C           -0.59562886403140       -0.26732111549519       -0.36159946546420
C           -0.43607477711231       -1.02983147292412       -1.67027699109519
C           -0.74652703099242       -0.17031418110662       -2.90021644259900
O           -1.09116740573632        1.01138190684931       -2.77093174583706
O           -0.62181230121919       -0.75181088171686       -4.02643456745005
H            0.22056284235963        0.38295458429733        2.13982433546847
H           -1.36921920010255       -0.09117617020265        2.20200400523712
H           -0.89735300034010       -2.02544806772368        0.83861823346275
H            0.78346854224862       -1.49036569377388        0.73758865334002
H            0.05117272997901        0.61118501456945       -0.40356502334693
H           -1.62619161213669        0.08749453853866       -0.30232557303233
H           -1.10360174072021       -1.89364054796718       -1.71685184971712
H            0.58405610455541       -1.39978178435928       -1.79890937931269
H           -0.19237372313440       -1.07011083669729        2.93368872535334
O            0.07864515459985       -2.00978130666960        4.18484478708990
H            0.97122687906398       -2.33609891083993        4.32990557566447
H           -0.14851440111688       -1.45002242181044        4.95561675511948
O            0.48704384297826        1.55513391341414       -8.12168195907399
H           -0.01666749858709        1.37852628528361       -7.30736921794461
H           -0.16840859336352        1.81195531853930       -8.77844765159781
O           -0.49312604476674       -0.27121922078905        6.19724658961414
H            0.14539703803343       -0.15585508190592        6.91948298295656
H           -1.36613845977984       -0.16791117395695        6.58558110282429
O            1.31137867139208       -0.00371535266629        8.34093360423728
H            1.97933898985161        0.68422289563953        8.41538105982424
H            1.58674313665098       -0.73567610556846        8.90127779956863
O           -1.15162153224648        1.17991306624949       -5.86708328699512
H           -1.35352150190514        1.92103158467942       -5.28536493028810
H           -0.96662822900742        0.43337387221411       -5.25358839899862
O            1.83615016679815       -2.03157295050923       -4.11783792256869
H            0.96653087882608       -1.59177192331426       -4.14332074606963
H            2.14765608338766       -2.04578809906021       -5.02837800472112
O           -1.95775979400976       -3.19194026529920       -3.90641529453984
H           -1.83601570040853       -3.67982112904250       -4.72722500490683
H           -1.49129195558012       -2.34557747566318       -4.02866275690929
