37
 energy: -59.873193627820 gnorm: 0.000224583976 xtb: 6.7.1 (edcfbbe)
N            0.62644422493710        0.74826353090257        2.29033954752850
C            0.18059681957931       -0.19310640100968        1.25445464320223
C            0.97642035043106       -0.00726367355792       -0.03236556224267
C            0.47641599398843       -0.93653275437721       -1.13269794231640
C            0.75969161243870       -2.44578221603651       -0.89452584936056
O            1.42863869791565       -2.78205676662041        0.10357363840347
O            0.28839001940039       -3.22662754838114       -1.75466335187037
H            1.64989414660264        0.67016081799725        2.46453751444200
H            0.44636334658168        1.74547111708201        2.02448095896315
H           -0.88042020638900       -0.03939994914502        1.05360368323135
H            0.32256066315920       -1.22177799001715        1.59003597615006
H            2.02474213780911       -0.24410896941223        0.15772767160911
H            0.89984956345099        1.02439155718724       -0.37981473206984
H           -0.60208449890953       -0.84437059771085       -1.28047954374000
H            0.95542984387914       -0.70379512717023       -2.08631302995238
H            0.16042204431442        0.58285003477276        3.20501220301917
O           -0.20201130786179        0.84780753397656        4.92494855607993
H           -1.03866210652330        1.12367598516327        5.30678957111710
H            0.40289812331864        1.61084927315142        4.98063991688498
O            0.27962491884681        3.45017231978227        2.04760606724688
H           -0.64241975428635        3.71501677695312        1.89824084400060
H            0.80770980026624        3.88196497086038        1.34692104570363
O            1.52536498572049        2.95648057975725       -2.25865154248349
H            2.30974579729114        2.77188098433011       -2.78351595782239
H            0.81205508720566        3.15231639535890       -2.87376832682686
O            1.53811827119852        2.98021801657197        4.45830421223633
H            1.09448441940773        3.24464668260545        3.62635634782302
H            1.79580014621671        3.79248339856569        4.90064580195855
O            1.81790778047770        4.49678580128377        0.05608478320683
H            1.68511553225370        3.96540979705435       -0.74849721891207
H            2.76453092720040        4.49704353431280        0.22623981277872
O           -2.42439141434301        3.92608335322091        1.48929831904885
H           -2.71362335526650        3.92626011456345        0.57253328211538
H           -3.15479787804835        3.59780582129263        2.02188392810440
O            3.17894058120130        1.01517741167659        3.30264515933972
H            3.48686365093346        0.35127917118741        3.92372491511144
H            2.77106903574022        1.73023601380986        3.82876065841057
