37
 energy: -59.877111907484 gnorm: 0.000383739022 xtb: 6.7.1 (edcfbbe)
N           -0.61154685875007       -1.48317305548190        0.79882110784255
C            0.15121676996892       -0.28410496573706        1.16955263693669
C           -0.09333670560511        0.86397502109008        0.18770723073095
C           -0.06938872300603        0.44276190529911       -1.28984704056092
C            1.11597550193122       -0.47991711174296       -1.65777597141075
O            2.13524524960576        0.02556524783122       -2.15667122875201
O            0.95330050818299       -1.71286304488446       -1.43943461357533
H           -0.50574384159264       -2.25487803243215        1.49944965774368
H           -1.62664077714936       -1.29527681305135        0.68328687766327
H           -0.12215703584502        0.03323403801728        2.17599699069707
H            1.21282261946039       -0.54059519459444        1.16025104867893
H            0.67646368859418        1.61928519822964        0.35193145455430
H           -1.06154331169421        1.32458987089778        0.38869554335271
H           -0.99201889672795       -0.07800808910382       -1.55031150352633
H            0.01391726121728        1.33530230741088       -1.91199164991844
H           -0.21232235735560       -1.81465692159975       -0.10478157554969
O           -1.33743445929475       -3.24238289482466       -1.86541897969483
H           -1.86913084974657       -2.43606007713658       -1.92548829032608
H           -0.41664095706616       -2.93377327834893       -1.85558440427201
O           -3.36097364491452       -1.36803521048608        0.33471462448448
H           -4.09640463937550       -0.90462665439204        0.74208909019263
H           -3.40614968535922       -1.19643814425758       -0.62553791991598
O           -3.34528674885962       -2.95917488840187       -4.06514813538160
H           -2.82012352574777       -3.59354301639835       -3.55875610413366
H           -2.81994935720782       -2.75155697086427       -4.85556606417889
O           -1.53133226056231       -2.36206880563837       -6.15449122679077
H           -0.98994285875751       -3.05402526301718       -6.54625267756696
H           -0.99832565833921       -1.56149557111878       -6.13628732743866
O           -3.21473159588134       -0.87472641670665       -2.35930617129288
H           -3.40038036994434       -1.60889988913692       -2.98828583629951
H           -3.59322657384700       -0.08643088943431       -2.75695275294043
O           -0.56124376876004       -3.72539764885193        2.35397779017943
H           -1.32842862711942       -4.02201448989084        1.81049715886372
H            0.14027774525417       -4.36395638903541        2.20536917103659
O           -2.50343166799935       -4.07203983527332        0.52123471413332
H           -3.01045710008437       -3.24493380478217        0.58015928155497
H           -2.04041148757758       -4.00158522214186       -0.33457990503908
