37
 energy: -59.882254249739 gnorm: 0.000278397453 xtb: 6.7.1 (edcfbbe)
N           -0.37780435377723       -1.45085032648571        0.97143618941356
C           -0.37769852095170        0.01238703702529        1.17912782346220
C           -0.71037278554866        0.73854148411329       -0.12112386248440
C            0.45289878422914        0.74518736104643       -1.11864894218243
C            0.59821946323394       -0.49554860961390       -2.00867843679631
O            1.36178916120045       -0.40621783767093       -2.99680914940692
O           -0.01825183579816       -1.54614416002545       -1.70668200238506
H            0.37465412832018       -1.91712073609447        1.49893142010698
H           -1.30578024569963       -1.87168773939917        1.18539009151470
H           -1.11031901455795        0.26839045350501        1.94470481059785
H            0.60932765084059        0.32962042063826        1.51482441865957
H           -0.95643605907029        1.77321293101063        0.11610240217648
H           -1.58819032896793        0.28256409154980       -0.58186795788903
H            1.40247336921449        0.84279345160564       -0.58494217283639
H            0.38241310950105        1.59639772854909       -1.79954660077160
H           -0.20014751607539       -1.62525694965561       -0.04535918050002
O           -2.60734536172167        0.61575375032902        3.59592084635507
H           -3.52346258206454        0.87229979835696        3.45762188132010
H           -2.56057577279707        0.17856830218970        4.45175003431189
O            2.51847347959480       -3.96172787419141       -0.63291336612129
H            2.04301928021817       -4.76914047821097       -0.85244240707652
H            2.61420567661406       -3.47568157276213       -1.47058459219561
O           -2.84450574364502       -2.68022193795828        1.10227740807748
H           -2.85182763495312       -2.77950884231444        0.13261699762243
H           -2.91102968729933       -3.56805034950039        1.46525799536811
O           -2.45546535012499       -2.90851465335295       -1.62581876214688
H           -2.96890840101294       -2.68711486834346       -2.40648045212355
H           -1.57321416784932       -2.52197436857069       -1.75396139949673
O            2.78363525982671       -2.70889439545264       -3.11742359288063
H            2.20764504053958       -1.91429859654245       -3.15119123057118
H            3.62046792391632       -2.43939586491925       -3.50863069206328
O            2.92789682545319       -0.02372311270331        1.36505983798174
H            2.67521953025541       -0.95085957815373        1.53366651720002
H            3.88806921641365       -0.00808065664031        1.34639600294770
O            2.04206536342606       -2.65901719158536        1.73543207045061
H            2.33101463402349       -3.27107830584508        2.41903612730475
H            2.22310946508087       -3.09349280383349        0.87908492502882
