34
 energy: -56.714840785174 gnorm: 0.000593070456 xtb: 6.7.1 (edcfbbe)
C            0.23482215876107       -1.14695454248362        0.50808954180695
C            0.71119995532993       -1.13795140590566        1.97442987971175
O            1.62835400257357       -1.92050355831867        2.29809443405437
O            0.14636273981783       -0.33057077935159        2.75255124471101
C            0.57690044751420        0.17621436507370       -0.16506117404554
N           -0.24909593350397        0.37269587254882       -1.37318841613085
H            0.70653434965428       -1.98778625945022        0.00346647587792
H           -0.84470347865920       -1.29235736595129        0.52650537781182
H            0.38909501708283        0.99097472162847        0.53725307454012
H            1.63682672797024        0.18289766252443       -0.42315404348844
H           -1.23653661837813        0.66209788757809       -1.08336601032478
H           -0.34229539600053       -0.52107637532483       -1.90402895312420
H            0.13684198582878        1.09831579525505       -1.97566155040600
O           -3.32478177719001       -1.48914020150820       -1.50271822667526
H           -3.29037174357394       -1.89711014506778       -0.62071775804172
H           -2.50042675504034       -1.75315215273550       -1.94645039662147
O           -0.75368184821543       -2.01793299924968       -2.67212650649109
H           -0.64134530855092       -2.13478856448295       -3.62023175866404
H           -0.26614303793026       -2.73868398666932       -2.23994821799402
O           -2.37103659661017        0.33177990303656        2.15336602149285
H           -1.42829712515122        0.13045159211428        2.37479437464392
H           -2.72140860001565        0.81217787424015        2.90824424382508
O            0.73671430645572       -4.04834309436432       -1.46582049757071
H            0.33534621714472       -4.70301618257526       -0.88787774841205
H            1.63124199657796       -4.34554339464996       -1.65791311165241
O            2.14986253606589       -3.19937085439695        4.68649520966811
H            2.59049833480254       -2.52275107637607        5.21016863272429
H            1.95527959902176       -2.77695073477082        3.82546968916417
O           -2.71695318710607        0.98118321347029       -0.57474616819821
H           -2.68664689421367        0.83804887574857        0.38621789352966
H           -3.14303278071294        0.17882825261334       -0.95292008885624
O           -3.05980418259062       -2.17526831889663        1.18458095846063
H           -2.91301280595819       -1.30042726295560        1.59223801560600
H           -3.53803930519232       -2.70437976035214        1.82661955912711
