37
 energy: -59.884893122434 gnorm: 0.000535693218 xtb: 6.7.1 (edcfbbe)
N           -0.14633329774638        1.06270378531403        2.05681046578244
C           -0.60260130433387        0.02967330695392        1.10967463335124
C           -0.15950361429155        0.43671223963536       -0.28833719718428
C           -0.60170323428905       -0.48271821068996       -1.41339118359269
C           -0.14400503140915        0.06100501636064       -2.78443141241958
O            0.57365336977696        1.08562134627983       -2.81492900007465
O           -0.52077490350001       -0.56530058455485       -3.80374556353088
H            0.88234886562544        1.17515921871047        1.98817134469834
H           -0.53745328055270        1.97932782373084        1.78706558341892
H           -1.68880073169026       -0.05214948086787        1.14781462913922
H           -0.17089292520417       -0.93314377436650        1.38174742480829
H            0.92784713954528        0.49223367178221       -0.31920499679910
H           -0.55826030775071        1.42529870300207       -0.51103478858142
H           -1.68733902823577       -0.59184593487691       -1.45893843327116
H           -0.17946235910540       -1.48558188148833       -1.31667720357519
H           -0.41108106889381        0.83518799884697        3.04626379021800
O            2.46833974685927        1.78006016753894        1.35176371581113
H            3.34121084795543        1.39500351987708        1.25171256638681
H            2.25065569348889        2.22944012588728        0.51835449174588
O           -2.73177190354303       -2.12369907375688       -3.51125498524784
H           -2.83226276051101       -2.64304027604279       -4.31469968694212
H           -1.93089455841487       -1.57327309425385       -3.65285482064708
O           -1.10733135682132        3.12134638254608        5.40100645054808
H           -0.83574085543326        3.68694950066880        4.65019846003038
H           -0.68208770639900        3.48649449817598        6.18088904194020
O            1.53575331039429        3.00484992595642       -1.05470443252533
H            1.20525209913962        2.32847251342623       -1.67909007327245
H            2.01798299764596        3.64298692847436       -1.58837617079036
O           -0.87783784338481        0.53261015573281        4.62578674586095
H           -1.71926910725153        0.11047491041990        4.81621227182284
H           -0.94219890906581        1.44544498732925        4.97954177894766
O           -0.53737885752442        3.60148932198426        0.78484568016671
H           -1.23592998789599        3.98576121708565        0.24971346348932
H            0.22652028566954        3.46876722489304        0.19473483040845
O           -0.13731541981939        4.65337240567519        3.33112906173796
H           -0.30681488228943        4.32561058802072        2.42895933323444
H            0.77956687916255        4.94164482655253        3.34285218485947
