34
 energy: -56.708612434287 gnorm: 0.000121099608 xtb: 6.7.1 (edcfbbe)
H            1.67771946361860        0.12841159761297       -0.74976879930593
C            0.86420917350506       -0.59692851383593       -0.79999322360145
H           -0.01431333423795        0.50254662076031       -2.33736043335666
H            1.19396775912935       -1.47896154263433       -1.35049285377106
N           -0.29254312008685        0.01249266507992       -1.48835006150102
H            1.30160161974955       -1.43934693668023        1.14255510009123
C            0.45963418429182       -0.99562630280869        0.61407579267931
O           -0.60950647239061        1.14469288687117        0.89052067308125
C           -0.05991042695905        0.17997710088214        1.46387873465452
H           -0.69626496313734        0.67884345034230       -0.79131750444903
O            0.07989807117485        0.08413755455259        2.70912561617989
H           -0.99397356842234       -0.73640387729000       -1.73625754421329
H           -0.34121564232912       -1.73790823546425        0.58940149138980
O           -1.35101765245055       -3.63763456657953        1.81129676584744
H           -0.84204084567676       -3.22965825074356        2.54218746446017
H           -2.11845666952185       -4.04972949357700        2.21879946853065
O            0.26682426536168       -5.04230157488463        0.08568604438938
H           -0.32416326695546       -4.55622852036067        0.69413944864253
H            1.01246404147639       -5.33934971865859        0.61447134749696
O            1.16276266278293        0.58692316139396       -6.75856540094814
H            1.03884005918524       -0.36687220874908       -6.71226952222803
H            0.50806746377762        0.92758720483130       -7.37550709505199
O            0.49900241006281       -3.57236235128393       -2.20698809151526
H            0.43313381348436       -4.10947096768038       -1.39188670242436
H            0.77150155834628       -4.17353461521857       -2.90518388025579
O           -1.40209250062506        0.15950167758413        5.05967513020438
H           -1.08887094947313        0.88237734772898        5.61134931471629
H           -0.95392869896412        0.26851584790493        4.20216341227818
O           -0.01381259130272       -2.37221854411559        3.83677576216448
H           -0.50938139765039       -2.17047268547494        4.63867311707041
H            0.14264485508648       -1.49458369593086        3.42450417298258
O           -1.79742804449439       -2.11878090767630       -2.18967290430353
H           -1.01028811119085       -2.69961929015955       -2.28577698284284
H           -2.35407814521671       -2.52649631580184       -1.52163085694846
