34
 energy: -56.711472772757 gnorm: 0.000221382397 xtb: 6.7.1 (edcfbbe)
C           -0.65460430289169       -0.46375649492347        0.56996011181608
C            0.07503786436348       -0.18245033712884        1.90249844698354
O            0.15706728967281       -1.13776512210741        2.71014499211295
O            0.53226432071386        0.96078553107498        2.11263356585856
C           -0.53933792219813        0.68819693973723       -0.40968482113595
N           -1.19512108022270        0.39832328009755       -1.69982763131667
H           -0.22776337936183       -1.38358996803273        0.16844075066265
H           -1.69345344603132       -0.66748757465274        0.83746816231869
H           -0.99444271699080        1.57840402696669        0.02361389496231
H            0.51385649222244        0.89423934929485       -0.59595070725993
H           -2.20074349820084        0.28172077169799       -1.57396422291862
H           -0.80356773112123       -0.46418411334463       -2.12486761732514
H           -1.01174209024271        1.20855045207236       -2.34206278185618
O            1.89237134914012        2.58526002736040       -1.65947723213005
H            2.84513552716819        2.74870802131714       -1.70850206402960
H            1.60187327219727        2.92388488675023       -0.79420772243184
O           -0.16877108841147       -3.63650912230822        1.67196122571716
H           -0.03239195250915       -2.75565453410432        2.08353486554057
H           -0.34420686411724       -4.23624446251894        2.40263951647404
O           -1.48789089343734        3.85087755517676       -0.73524585860165
H           -0.68321893798634        3.81450726449060       -0.19509560450450
H           -1.20313235862309        3.61421567316434       -1.63239972358348
O           -0.14594590356363       -1.89974163333185       -2.90354284199910
H            0.76730477294613       -1.96888319004003       -3.19548442614604
H           -0.48212045277935       -2.78969267859067       -2.77289313338784
O            4.68896215193618        3.03122178071280       -1.35140720967948
H            5.10911503413981        3.89107979311033       -1.25114986260959
H            5.10599571407762        2.43348634463165       -0.72376725733903
O           -0.39941378770230        2.59419845443619       -3.10818892847813
H           -0.26953003305452        2.65480807449958       -4.05844561513104
H            0.48720154227704        2.62358821232330       -2.69443927734526
O            0.89217700972961        3.35598931563445        0.83501844705894
H            0.75366728837174        2.50570929108645        1.29974929212309
H            1.26690381053133        3.95475018550242        1.48694126764514
