! Opt B3LYP D4 def2-TZVP TightSCF TightOpt CPCM(water)

%maxcore 5000

%pal
nprocs 6
end

* xyz 0 1
N          1.53730       -0.06600        0.42280
C          2.40830       -0.10150       -0.75160
C          1.85300        0.79210       -1.87290
C          2.72400        0.75540       -3.13650
C          4.10450        1.29640       -2.89010
O          4.26850        2.56580       -2.47050
O          5.08320        0.59110       -3.07600
H          1.47190        0.91040        0.79230
H          0.58280       -0.41390        0.17390
H          2.48620       -1.14930       -1.11780
H          3.42440        0.24400       -0.45940
H          1.76640        1.84030       -1.51140
H          0.83580        0.43400       -2.14330
H          2.78240       -0.29060       -3.51090
H          2.24310        1.37600       -3.92260
H          1.93870       -0.68270        1.16580
*
