34
 energy: -56.712599876732 gnorm: 0.000218361069 xtb: 6.7.1 (edcfbbe)
H            0.98538632810186       -1.36480332494478       -0.51924359299894
C            0.02918655029527       -0.85875944707902       -0.65170622951772
H            0.81086568952614        0.03833951251382       -2.36063884072771
H           -0.68986019501560       -1.55319944285295       -1.08537125690445
N            0.20771091340845        0.29561847206043       -1.55243998473331
H           -0.64278881239530       -1.21395089334806        1.37786119088002
C           -0.44998539052816       -0.37416518739165        0.71274279543682
O            0.99357345366903        1.53147294536101        0.70647059957078
C            0.63454954126259        0.51970151629775        1.35811146330487
H            0.63701044924147        1.04413477005069       -0.96997636565506
O            1.10281922171393        0.17496259220332        2.46456182928560
H           -0.71491934899956        0.62319976472503       -1.91338653534293
H           -1.36029437596855        0.21916030263306        0.60928277435495
O           -0.94419564907481       -0.75542760504640       -4.72186708184245
H           -0.00373533276880       -0.64044856069915       -4.48846470905675
H           -0.98660204056369       -0.83450136674612       -5.67850601089326
O           -2.13086944419981        0.92984119034472       -2.85400723168334
H           -1.87612897384005        0.36256088749849       -3.60619269979491
H           -2.27389057744105        1.81333592462426       -3.20258289280606
O            2.68449139527417       -2.88227428158441       -0.29390970660415
H            3.54124546609491       -3.31742073149321       -0.28275975647411
H            2.26242202975652       -3.13159944589963       -1.13971081932539
O           -1.19656616335697       -2.86072587097715       -2.91392021573345
H           -1.23168288507431       -2.13059155478292       -3.56178579420686
H           -2.01730405669496       -3.35086292026844       -2.99407760632598
O            1.49202433715254       -2.61386082473212        2.37728037513161
H            1.90317083156540       -2.71256544792873        1.50250473419380
H            1.40979032133045       -1.65360549297008        2.52189970890055
O            1.50183750146048       -3.27229133339669       -2.80667794226379
H            0.52793712906574       -3.21722333434659       -2.72373263435853
H            1.68204366043831       -4.03481315948833       -3.36479959839002
O            1.64294461851012       -0.68695076920238       -3.70495070928367
H            2.53973128769583       -0.38640467577114       -3.87052430309561
H            1.69907052033281       -1.61167820734607       -3.38427795301011
