37
 energy: -59.885266867028 gnorm: 0.000192468063 xtb: 6.7.1 (edcfbbe)
N            0.01767093190873       -0.79406333765817        2.22628613082365
C           -0.56536229114934       -0.48508371587800        0.91075539362656
C            0.29180835253849        0.51863380350801        0.14535836234112
C           -0.16301828172784        0.64302568199047       -1.30642033622305
C            0.29908663091612       -0.54201593280370       -2.17670259981912
O            1.32628812041220       -1.16374287654264       -1.83706867114998
O           -0.38119164577597       -0.80676051046394       -3.19764559114515
H            0.97630050617222       -1.22413316534843        2.10492616670646
H            0.08854968554019        0.04250007484937        2.80350377606582
H           -1.57436369670023       -0.08983485435855        1.03736616587349
H           -0.63255103440107       -1.40944019997937        0.33717164783477
H            1.32971250817969        0.17797028731978        0.13184231046343
H            0.24731523232355        1.49910863538067        0.62140161114814
H           -1.24769062707415        0.72061866467413       -1.39621793849761
H            0.27375013412708        1.53155924639624       -1.77023106339821
H           -0.55375134929629       -1.53979382945476        2.71771731534222
O           -1.09184437267363       -3.84837140439693        0.64910884250544
H           -1.51926507749679       -4.49729236251261        0.08741725736224
H           -0.18180979544911       -3.73440572082225        0.30029843631017
O           -1.12977217054709       -2.98380965608790        3.26363269458810
H           -0.31802557071533       -3.40551594999717        3.59621459912028
H           -1.28271625389703       -3.38570703656286        2.38945452383744
O            1.39190016367792       -4.04631042066572        4.00906103932731
H            1.56821360852015       -4.97985687120088        3.85782266459885
H            1.71373621255358       -3.83176074828679        4.89038773296487
O            0.32209344184375       -3.16038589390445       -4.32453373270961
H           -0.43865657707280       -3.35128829029923       -4.88221809614664
H            0.13181436624223       -2.28487337303408       -3.91111790895882
O            1.63666881555625       -4.95750783440404       -2.65529678106757
H            1.15004323662069       -4.33814490357449       -3.23134002251819
H            2.48935955448819       -5.09088365408909       -3.08010013962470
O            2.27006906198550       -2.26468410876324        2.01089456131644
H            2.03500148203559       -2.91650215072529        2.69698444420091
H            2.13174938356159       -2.71962087987552        1.16347682284365
O            1.40357093025488       -3.42681884257066       -0.37365789692544
H            1.40236851222003       -2.59364167021276       -0.88495463250616
H            1.56772587230770       -4.11289819957849       -1.04753208847464
