37
 energy: -59.864359651995 gnorm: 0.000252191139 xtb: 6.7.1 (edcfbbe)
N            0.55639531486022       -0.54013936865777        1.50732076035687
C            0.20352799433131        0.82568810986904        1.06385035260197
C           -0.49431066600291        0.80272866033284       -0.29082983476666
C            0.43508115272227        0.48102526783984       -1.46828196616161
C            0.70784662958804       -1.01152813002074       -1.75286194642998
O            0.73459182953118       -1.37219246874303       -2.94199381239426
O            0.91502483591303       -1.77979912384353       -0.77267194792233
H            1.34364693295491       -0.53819701294256        2.15497539823522
H           -0.24035512193229       -1.00762498407350        1.94076997850535
H           -0.44686528677881        1.29411162932507        1.80209657731243
H            1.11189972455858        1.42059965007018        0.98061871215915
H           -0.89905328548173        1.79938685201495       -0.46402594610070
H           -1.32242140347863        0.09231714425633       -0.28342409655027
H            1.41125005894771        0.94797432244519       -1.31459253411799
H            0.02410314197887        0.88467377001218       -2.39552152996001
H            0.80717123484614       -1.10975412603891        0.62572541005268
O           -2.02809038404366        2.48757567801429        3.46260213295773
H           -2.21730339091782        3.15839634202405        2.77210114566475
H           -2.73279421974126        1.83589571033592        3.40954539463025
O            1.95675765013071        3.45362921683373        1.60835531837067
H            1.54938863931401        3.27269321596461        2.48345759620110
H            2.74451212460398        3.97628826406922        1.77841770844216
O           -0.15915086066200        4.15320185020500       -0.02518831436754
H            0.60111350960696        3.90150676825435        0.53633215333550
H            0.15743179649809        4.83793591535313       -0.61980621080829
O           -2.47256071349807        4.21465011588732        1.42557395629964
H           -1.63442071713364        4.24605510805677        0.92030999860402
H           -3.17773810649033        4.15595327717924        0.77566411662473
O            0.45220219709809        1.56958131354161        6.47196833094264
H            0.86003323089834        1.82832535075670        5.63045446210421
H           -0.29781627431750        2.18100245342758        6.56322862959032
O            0.68785624134467        2.99106321293023        3.98115786866057
H            0.57582779576459        3.78653712271596        4.51213810075097
H           -0.21754113132511        2.71644314947488        3.75331705461612
O           -1.63778688046676        3.44573919014744        6.06105579206988
H           -1.86094432685993        3.14554110430197        5.15806273387827
H           -2.47045926635143        3.58570644869755        6.51776645659669
