34
 energy: -56.716422711205 gnorm: 0.001398647319 xtb: 6.7.1 (edcfbbe)
C            0.31560206058225       -0.80602240273716       -0.00388131345299
C            1.47818503051455       -1.18228906220196        0.96285785518207
O            1.29339075456965       -2.19007073832393        1.67931621969872
O            2.50471931628427       -0.47292371190906        0.94079582887963
C            0.41591789019178        0.62810417881361       -0.49070680610346
N           -0.56091223417928        0.91177119099329       -1.55508009958029
H            0.39320209792894       -1.50665582687421       -0.83725721076810
H           -0.61412657401877       -1.00450838273688        0.52822570861597
H            0.25028822222893        1.30128667890228        0.35080053440944
H            1.43294940283624        0.78913564209759       -0.85145706056636
H           -1.53578114263958        0.78645756444262       -1.21424282769488
H           -0.44100228053258        0.26708101759893       -2.35814677908382
H           -0.47958857706070        1.90061595433931       -1.87938845556911
O           -2.96450477313382        0.83186218444742       -3.85885400453407
H           -2.51593046214100        1.61894758611408       -4.21732353581735
H           -2.28807349625260        0.13250541114174       -3.90188567254733
O            0.01182255464369        0.73311393990469       -5.90808103661725
H           -0.44392558509034        1.54271421945923       -5.60777366934070
H            0.89343324451054        0.99448387285149       -6.18371232276783
O           -0.69516254011104        3.58882453044719       -2.19823368708263
H           -1.54839991993489        3.66642865569549       -1.71209351132414
H           -0.09609554174410        4.22865997117584       -1.80789816458643
O           -0.67558590707817       -0.77967526179138       -3.78708772560213
H           -0.33885478453576       -0.31399471779323       -4.58374567313464
H           -0.55583108728613       -1.71813537528383       -3.93983938014889
O           -1.31060406453490        2.91189807282190       -4.78081214029907
H           -1.58295578116407        3.70734620044620       -5.24455317200354
H           -0.99598113336069        3.19627253566177       -3.89915437544052
O           -3.01371182412204        3.54707666359038       -0.83095997839522
H           -3.83461450791184        3.96562315586831       -1.10214985387735
H           -3.18550108384827        2.58489011957198       -0.82845431849600
O           -3.30933938479892        0.84776395611652       -1.22818738580037
H           -3.91523127565017        0.15423442600925       -0.96119985248906
H           -3.30873061313436        0.86233475111836       -2.22118913372704
