37
 energy: -59.872028141804 gnorm: 0.000195118120 xtb: 6.7.1 (edcfbbe)
N            0.07212497266492       -0.22930492283140        1.76673828823535
C            0.78977238275245        0.87513962080617        1.09876790404999
C           -0.07407636017759        1.49438439839015        0.00588922403402
C           -0.73212809832461        0.47498828328462       -0.93880593908275
C            0.17629359394121       -0.69548066188353       -1.35239257943022
O            0.68944276531679       -0.69179939471293       -2.49514212820185
O            0.33579271689676       -1.61927309239120       -0.51790483105117
H            0.59942941654595       -0.58526949248228        2.56307181877887
H           -0.87636885101224        0.10025374919239        2.08351103557898
H            1.04324712034556        1.64277569856075        1.83009111844678
H            1.70646370422470        0.47881132104424        0.65832000707385
H            0.54581502655345        2.17501293505547       -0.57778258326184
H           -0.87632020847211        2.07771358834287        0.45685318924028
H           -1.61009688035015        0.03633099508747       -0.45957188514035
H           -1.05674968919671        0.99528015886929       -1.83970080843165
H           -0.02080974364189       -0.98468773015048        1.04432000328964
O            1.50871502388889        3.29594157540004        3.33328420993963
H            1.81117342857118        4.05896629116717        2.83154302146905
H            2.14545034307228        3.15129945122864        4.04051212882429
O           -1.66261678763507        4.05833327616151       -2.73732007835333
H           -2.01938318053358        4.90801650812851       -3.01299076415169
H           -1.66736866654406        3.49341844302300       -3.53331292320563
O           -2.27580635484768        0.78598579846774        2.67721889999592
H           -1.95738433818969        1.60036217366752        3.12136674660809
H           -2.80572365382844        0.31207143953311        3.32388108094787
O            1.02220816626830        1.42621293272541       -4.06809444766159
H            1.74500042332247        1.16950537002360       -4.64871861789925
H            0.87068107426931        0.65063541352775       -3.47309083279470
O           -1.23878935243932        3.00940931685750        3.86858621597467
H           -1.61792884791914        3.87581914348348        3.69845849872151
H           -0.28407139483221        3.08445532450548        3.69141158441793
O            1.08513003474315        3.64334955831438       -2.26267141817016
H            1.18398190188948        2.92633888323067       -2.90945857024754
H            0.14566585031010        3.89572012621341       -2.32608472566942
O           -1.42157947345461        2.38027686464513       -4.92977945118000
H           -1.94577956723827        1.60599740070111       -5.15378466253301
H           -0.53198649691036        2.05182525476969       -4.69384972914752
