34
 energy: -56.708585171675 gnorm: 0.000285358956 xtb: 6.7.1 (edcfbbe)
H            1.78506863001719       -0.04114685573749       -0.43508569900506
C            0.83673082691880       -0.33060032877818       -0.89060754117055
H            1.00160183599541        1.29005735069231       -2.19377307089111
H            1.00220884590659       -1.16935965817047       -1.56779372584548
N            0.28648294535932        0.81778340481383       -1.64245191471095
H            0.22438971682415       -1.57802085753694        0.77240871136398
C           -0.14528284598401       -0.72433310209119        0.20770385220853
O           -0.46593318467630        1.59366160382885        0.75249015673156
C           -0.42625615194087        0.42239005655180        1.20196083429856
H           -0.09469270897050        1.45208125574342       -0.89338385004833
O           -0.62187591861128        0.12284587801875        2.40110428304413
H           -0.48606279754145        0.49634730099744       -2.27113824733343
H           -1.10922016941018       -1.00065451914943       -0.22462804814640
O            0.15650601437367       -2.43853697498053       -3.45563173866958
H            0.09219682974300       -2.92106480853954       -4.28847192474487
H           -0.33440376425933       -2.99508149864259       -2.82088062033440
O           -3.34086016998821       -3.58286558483175        3.04569525280335
H           -3.88712452874017       -2.79119506364056        3.05371266880698
H           -2.41964392885107       -3.26613164639516        3.07403719797398
O           -1.47868148971079       -0.33445216289102       -3.39408564495622
H           -0.86370179026426       -1.10686936851544       -3.48926217463909
H           -1.67964062491169       -0.02552782860027       -4.28139223860839
O           -2.95680563331265       -1.61263789456978       -1.46144566837029
H           -3.90223694653159       -1.44677095000875       -1.45706620965533
H           -2.57476584400877       -1.07791492916325       -2.18706680151543
O           -0.76889551974646       -2.44845239267465        3.19318817564706
H           -0.30185852759687       -2.49210592672787        4.03294800404845
H           -0.74630676912402       -1.49988961351263        2.92629564763100
O           -1.59237705596036       -4.32746097288743       -4.83457749186749
H           -2.47034412668506       -4.40143450651407       -5.21732822765131
H           -1.70816053706206       -4.39536195003873       -3.87288953592871
O           -1.64375442589774       -3.95243481527900       -1.99486781872758
H           -1.52571257689626       -4.50404694419085       -1.21828981653502
H           -2.18157360847768       -3.18345469659135       -1.71295277516872
