37
 energy: -59.871402218870 gnorm: 0.000221646418 xtb: 6.7.1 (edcfbbe)
N            0.07519627717589       -0.34903338956624        2.39250122259359
C            0.12392952232492       -0.88077534792627        1.01692403249708
C            0.05791402990922        0.23435303727950       -0.01915646818202
C            0.10935478529315       -0.35356591779990       -1.42266447296010
C            0.13274303317777        0.70542550695427       -2.54148958186862
O           -0.08873245938573        1.89663362226240       -2.25697309014924
O            0.37187353868557        0.28031861091168       -3.70595315156475
H            0.72057271051244        0.43439935022847        2.49000994953294
H           -0.89913780655177       -0.03443831379176        2.61196203147150
H           -0.72609048075910       -1.54545331211635        0.86927327490752
H            1.04737844545222       -1.44205611537152        0.87090829209182
H            0.89796175959778        0.92400186154825        0.08933443776524
H           -0.85782381175400        0.81743153418027        0.08224709602048
H           -0.76195285355271       -0.98410459804320       -1.61389725628487
H            0.99595236095979       -0.97680528561739       -1.54740114063691
H            0.34265834029549       -1.10453866783775        3.07545664353088
O           -2.56698457214095        0.04316114673917        2.91723031237191
H           -2.73164428399201       -0.92405580969999        3.00076990738588
H           -2.94956045654005        0.46033788311570        3.69228111933177
O            2.60203054851501       -2.92389608989492       -1.66146719340066
H            3.52937700693830       -2.85295696576740       -1.90632959027458
H            2.09699156617443       -2.78962233104111       -2.48088375195766
O           -2.88076616288005       -2.64252071285665        2.71044217809928
H           -2.08243724286558       -3.19377527829067        2.64572749473312
H           -3.14942112226615       -2.47198604549597        1.79350995272495
O           -0.56738156772946       -4.24466287630239        2.32253539212625
H           -0.24331127857902       -4.16336492606969        1.41965543908726
H           -0.61912444050537       -5.18494551781349        2.52015687147288
O           -3.23675933305644       -1.24031092199947        0.31401393593096
H           -3.12425912012838       -0.47053122687454        0.89051322805144
H           -3.93999713012384       -1.02608798565658       -0.30190477661515
O            1.25798282411050       -2.22324814273988       -4.03724513324223
H            1.50025900671776       -2.28994987055110       -4.96582583166873
H            0.90991976277717       -1.30566532029459       -3.91848167524681
O            0.74014280780713       -2.43920383950918        3.98039892699671
H            0.42410484038397       -2.54012213096223        4.88240584906880
H            0.33006895598472       -3.14853261327838        3.45282352629333
