! Opt B3LYP D4 def2-TZVP TightSCF TightOpt CPCM(water)

%maxcore 5000

%pal
nprocs 33
end

%geom
    MaxIter 500
end

* xyz 0 1
N       -0.3953017315      0.8072179841      1.0737787851                 
C        0.5298143262      0.1481690397      0.1351618845                 
C        0.3678975430      0.7359175240     -1.2614911023                 
C        1.2984200553      0.0332697879     -2.2570597690                 
C        1.5920953091      0.9221406776     -3.4566355047                 
O        2.2604290661      1.9677571828     -3.2717362725                 
O        1.1569187933      0.5787450800     -4.5879453813                 
H       -0.2527158593      1.8181604244      1.0445043552                 
H       -1.3888621472      0.5954591131      0.8009814929                 
H        0.3140649113     -0.9194169151      0.1155477285                 
H        1.5593903778      0.3035814119      0.4612650435                 
H        0.6138886392      1.7986587233     -1.2316671677                 
H       -0.6625855404      0.6335607453     -1.6012445849                 
H        0.8694009195     -0.9075861403     -2.6012114805                 
H        2.2590731216     -0.1672983050     -1.7778292327                 
H       -0.2424687174      0.4692602649      2.0462640033                 
O       -0.0048975510     -0.1712038424      3.6377135378                 
H        0.8497839643     -0.2209638593      4.0737803820                 
H       -0.5254212064     -0.9289854778      3.9196885155                 
O        1.4039366247      1.9908519452     -6.9671456090                 
H        0.5346663913      2.1247434076     -7.3578697125                 
H        1.2524066034      1.5318751319     -6.1182747200                 
O        2.9278265500      3.7473719524     -5.3304636920                 
H        2.5726295409      3.3486167423     -6.1394270650                 
H        2.6431987394      3.1410404608     -4.6217301905                 
O       -1.6750916847      0.0763771599     -4.4829165652                 
H       -0.7527334382      0.3723707810     -4.5130430544                 
H       -1.6325527357     -0.8674987359     -4.6837973573                 
O        2.6229059233     -1.0340362643     -6.5745424571                 
H        2.3017881690     -0.3770870698     -5.9429823212                 
H        2.7857038916     -0.5496630013     -7.3904761733                 
O        5.0521897024      2.8027494488     -3.0463960299                 
H        5.2055230621      3.4974485959     -3.6947687251                 
H        4.1718950541      2.4585805581     -3.2506212333                 
O        1.0455881124      4.0910539930     -1.7443684889                 
H        1.4990144605      4.9391313541     -1.7362026072                 
H        1.5281677806      3.5311192384     -2.3671547287                 
O        0.2331174133     -2.1160564369     -4.9415525092                 
H        0.6352440923     -1.2360242870     -4.8514302066                 
H        0.7550647311     -2.5558265907     -5.6199797083                 
O        0.3160094549      3.3360806327      2.0080313531                 
H        1.2244001563      3.3469569079      2.3574615294                 
H       -0.0799955286      4.1752043081      2.2589117394                 
O       -2.9355230577      0.1926224686      0.3052950841                 
H       -3.7041627549      0.5617106459      0.7492542915                 
H       -3.0127594883      0.4315665086     -0.6342372582                 
H        4.4218952250      2.1438895432     -0.8202363371                 
O        3.5385600673      1.8249415596     -0.6089089856                 
H        3.0344171989      1.9380092594     -1.4286706938
*
