37
 energy: -59.881650393559 gnorm: 0.000410258678 xtb: 6.7.1 (edcfbbe)
N           -0.16117220131999        1.19497319866858        1.79591676163748
C           -0.64525349547571        0.19602677719852        0.83036711574126
C            0.08799339790804        0.35218067273308       -0.49934004878395
C           -0.57922561102528       -0.41757341499405       -1.63305516756240
C           -0.00382297303594       -0.04968963186811       -3.02312754244646
O            0.24239079793036        1.15963343877806       -3.25418321041605
O            0.15818265391946       -0.97803236956966       -3.83938555528135
H            0.85763779192230        1.10547694804107        1.94335879877496
H           -0.32814528388819        2.15309460623779        1.42391262447025
H           -1.71348146028291        0.34361704512859        0.66937097987326
H           -0.49334577547581       -0.80736553529604        1.22808308221022
H            1.12098481828180        0.01337614763492       -0.41164937496187
H            0.10172220049563        1.40313827155820       -0.78609337445405
H           -1.64460199840833       -0.17552076221956       -1.68359262865675
H           -0.47972566706971       -1.49813075694772       -1.51825122476720
H           -0.64501102706907        1.10516358462733        2.72378073098238
O           -0.08727798755250        3.34677665968377        5.05011282935717
H            0.52443826133775        3.54772424308577        4.30585352320456
H           -0.47696368105881        4.18563278058247        5.30785220637415
O            2.65019436920970        1.34103333745381        2.20236686506470
H            3.05948627214259        0.83804614418043        2.91368087725308
H            3.26877040875508        1.35915694124025        1.46751937833221
O           -0.44333507553345        3.76079185528029        0.74039624616853
H           -0.21241521754757        3.71593525746294       -0.20424908815715
H           -1.27553366273512        4.24013946564501        0.78935963402173
O            0.01398825157911        3.55501657898308       -1.98191930160277
H            0.45251934965105        4.19008980714763       -2.55477065198521
H            0.05403115812163        2.69905480677692       -2.45632883229949
O           -1.39680331532599        1.11782576561951        4.21621999983841
H           -2.33346018737369        1.31952936267725        4.28261326642127
H           -0.91836246976956        1.86346522700801        4.63656082643463
O            1.43379932119465        3.83592118155199        2.85891332802428
H            0.85862771321431        3.97499016140586        2.08807210225751
H            1.95696696328874        3.04462509832612        2.65150201022575
O            2.08285896572521       -1.97305960025937        6.45254056044907
H            1.81845835955042       -1.16413162909902        6.90318295323264
H            1.30411003565418       -2.30279066434287        5.99233430096737
