34
 energy: -56.700935067608 gnorm: 0.000330252755 xtb: 6.7.1 (edcfbbe)
H            1.68813888176610        0.13292815212778       -0.53802514804575
C            0.88997312025023       -0.60466404753455       -0.44811368926373
H            0.40604262408441       -0.37128573612298       -2.47790546967423
H            1.32168551732118       -1.60472728649483       -0.46724819686011
N           -0.05741271723017       -0.41211526312503       -1.56937117121856
H            0.81697134987202       -0.49519967445835        1.70683484114241
C            0.14344606693038       -0.38598923853507        0.85907542383202
O           -0.80224775690742        1.59969120613240       -0.11532425221427
C           -0.54197139717766        0.99055071059523        0.95487550834163
H           -0.51119332395988        0.51877854384684       -1.31076839118148
O           -0.83529076397374        1.41083902598491        2.09388732500959
H           -0.77528320580710       -1.14069653464954       -1.56392771090542
H           -0.64990754396264       -1.12920731905617        0.97916595823929
O            0.29175229163225       -4.24106437933647        2.40425551189792
H            0.99383744604309       -3.55078388903355        2.42469811926633
H            0.63110604792219       -4.96475444511720        1.86930972874190
O           -0.14431467695561       -4.22315679854679        5.13358487611072
H           -1.09112001534119       -4.24807790513380        5.29748115539687
H           -0.03423367947559       -4.33951120555348        4.16809694527536
O            0.95905937534261       -1.69135580098397        4.94359508052796
H            0.16517899863716       -1.21167338019185        4.63725618060620
H            0.63145362823301       -2.58078425585449        5.18854353166217
O            2.22709778191669       -2.36356426546052        2.67931592187430
H            1.82903700951219       -2.02875046695404        3.51853448037928
H            3.11597528706984       -2.64937469007270        2.90949151353505
O           -1.93803225457524       -2.56723265134303        2.01406236663884
H           -1.22924952712278       -3.22360348419802        2.14005870848416
H           -1.81354998576657       -1.92503042957410        2.73528684970885
O           -3.44367443996055        0.69563131072675        5.28091248463705
H           -4.22607733994618        0.79566289565316        4.72929489994919
H           -3.24586656639138        1.56011000686317        5.65466508069476
O           -1.33471743582726       -0.55234897569875        3.89770772956286
H           -2.03960670533551       -0.20306892664640        4.47016525137956
H           -1.10971409079895        0.18408119760232        3.28645755652035
