37
 energy: -59.887984601949 gnorm: 0.000355350514 xtb: 6.7.1 (edcfbbe)
N            0.62961442298228       -0.84485404404531        0.89454768783716
C            1.29940933552819       -0.16847328173991       -0.23041871685735
C            0.46838634678121        0.94129134146501       -0.86477226546120
C           -0.73599894718716        0.42388351312082       -1.66518840436228
C           -0.29357765562631       -0.64861279780906       -2.67187573859043
O            0.30210375909528       -0.28480340931520       -3.70682421815015
O           -0.51843743888801       -1.85519530853246       -2.38245727721791
H            1.14063771482781       -1.75268979497227        1.09224358423743
H            0.67636764012303       -0.26260823627741        1.73245635716678
H            2.23221133853822        0.25516734193706        0.13814343777528
H            1.53365325784341       -0.90657862160969       -0.99467638905918
H            1.11992573092991        1.48800954379696       -1.54791599669980
H            0.11517913666556        1.63683707331347       -0.10300088205784
H           -1.49868515445981        0.00629251709290       -1.00998601484888
H           -1.17380179525802        1.24745473773011       -2.23232961065382
H           -0.34599572927341       -1.11226603896685        0.66496014763934
O           -1.71467761526291       -2.11960140934364        0.05502658641241
H           -1.79440692336405       -3.02776629963431        0.36050652065840
H           -1.36828464885312       -2.15786611752782       -0.86201131768444
O            3.95528780968919       -1.80379969111054       -1.67247927529295
H            3.22130153084443       -2.43191602041516       -1.78591627503725
H            3.72058194077224       -1.03109688793156       -2.21296324961666
O            1.62746816257524       -3.43355085640043       -1.76438305130342
H            0.85861548881754       -2.90262422484670       -2.05426354810753
H            1.55396683896666       -4.27669273439659       -2.22031464071349
O            2.95688475899854        0.26346700683000       -3.29417261389217
H            2.02863465010304        0.06950788101692       -3.52051145123132
H            3.34701895044490        0.65535085856747       -4.08077347386390
O            4.29899346134529       -1.72185252803694        1.01608884193972
H            5.19111693348268       -2.03429968956490        1.18649563473643
H            4.21995391546974       -1.64952202042313        0.03902170614625
O            2.73878089136675        0.11918645469947        2.56215486910931
H            3.30725310703906       -0.52251673068107        2.10525672423682
H            3.27965487427442        0.52865973222898        3.24038432636097
O            1.96169963764119       -3.17613851825556        1.03262147541213
H            1.87263531288200       -3.39104529210442        0.08852242863894
H            2.85940896012712       -2.80437944775144        1.13250008235526
