34
 energy: -54.791097588510 gnorm: 0.000305463043 xtb: 6.7.1 (edcfbbe)
N           -0.02894732600466        0.86208982804615        0.13798715801547
C            0.42156069674727        2.16486799614280       -0.37548823917135
C            0.07576487469882        2.32909229999730       -1.85311890442844
C            0.94034884909347        1.48391067892844       -2.80344821072862
C            0.42667925411819        0.05467140118870       -3.02478081343144
O            0.13359046708983       -0.28458668353808       -4.19359101332485
O            0.32534699134998       -0.70643797603538       -2.03283973863816
H            0.36547969380149        0.66881571380759        1.07649186199999
H           -1.07754913316270        0.82019470798339        0.18052150714342
H           -0.06620484405562        2.95605939536467        0.19427935387473
H            1.50116485687039        2.24879089176565       -0.23992699704678
H            0.22025162866523        3.37610874536979       -2.12024124603247
H           -0.97819376447140        2.09203231679426       -2.00891533006339
H            1.96101114723799        1.41213616575852       -2.42035748909115
H            0.97728557762286        1.95146106362976       -3.78885117566604
H            0.25558404970643        0.12089241945092       -0.54070581824138
O            1.02946531707433        0.43945852194879        2.68753088718884
H            1.40625950757597       -0.41733479358820        2.90757436757962
H            0.49257503275751        0.72234228078573        3.43432186201453
O           -2.21300628815530       -1.64572444649295       -1.60115038187381
H           -2.53021640100226       -1.76330185260809       -2.51201833474689
H           -1.25453377451512       -1.48283620858022       -1.70179196561875
O           -2.29974641035657       -1.69579117150653       -4.38393902673205
H           -2.01116873214946       -2.47736216490612       -4.86988334990480
H           -1.52100741788975       -1.10975244722266       -4.38511226551555
O           -2.73677597390563        0.53328241539603        0.03051295797616
H           -2.70084557127382       -0.13781801508669       -0.67730704974198
H           -3.06586538532677        0.04699197229952        0.79701123514848
H            0.35976636827498       -1.86246296505454       -5.11744757340548
H            0.65207953433475       -2.42186375925164       -6.52707510436228
O            0.31776158257616       -2.67016716993673       -5.65961467946803
H           -2.69856217480091       -2.19869767660014        0.15909617363178
H           -2.28174520634099       -2.92633263739375        1.45416666561354
O           -2.82229376895066       -2.20486237397269        1.12160939322756
