37
 energy: -59.859196875707 gnorm: 0.002057803467 xtb: 6.7.1 (edcfbbe)
N           -0.67429646426105       -0.01436836035346        1.48714778612344
C            0.49595787579744        0.51783295976178        0.75841283679303
C            0.03249261288890        1.35976246817868       -0.42780139529199
C           -0.29568446026056        0.55952992313267       -1.68939495146690
C           -1.59274223894426       -0.27120952231636       -1.69855196903637
O           -1.95992466888406       -0.71836805198296       -2.80819003330890
O           -2.21566838801340       -0.47156768411713       -0.62757507331615
H           -0.43504471919077       -0.82058076232853        2.06196422903996
H           -1.08070115772962        0.73616846954804        2.09204322820943
H            1.08267186035424        1.13290069101878        1.44187429756090
H            1.11227384525871       -0.30759100692744        0.40008607842739
H            0.82158045712559        2.06288360135872       -0.69474064549185
H           -0.84674795716360        1.93731550620316       -0.14146278698349
H            0.51390054229814       -0.13421112102174       -1.93058232607402
H           -0.38304987111771        1.24504888489395       -2.53643179488801
H           -1.39178467733805       -0.28356382825606        0.75608454359518
O            2.11081136920867       -3.81472594759729       -1.03574891054649
H            2.71148222810429       -3.75190695763059       -1.78570858771524
H            1.31725962250571       -4.25798157722748       -1.35157568152041
O            0.17753497774135        1.07156249009195       -6.41484904952845
H            1.06953973772660        1.15241079943331       -6.76944265158085
H           -0.40517967835609        0.88533615110551       -7.16025869574848
O           -0.62101350446565        2.84766776193385       -4.29812040445451
H           -1.45684293666138        3.22093007851499       -4.59497046228271
H           -0.33235274217049        2.24292775735370       -5.00010101808319
O           -1.35515466155694        2.10833051538831        3.08967672178951
H           -0.42903995118512        2.37143840931193        3.24840704009713
H           -1.82201597157267        2.88714376952291        2.77667937175418
O            0.01911995976085       -1.22159579960190       -4.66061663764985
H            0.06159403750841       -0.40634657366156       -5.18686353996661
H           -0.72623224552082       -1.08426000074948       -4.04208173803130
O           -1.22308156150606       -1.10766252470990        6.83559647512339
H           -1.57013139840939       -0.22899521844171        7.02104458188064
H           -1.93350675156153       -1.60615350592922        6.41890623105034
O            1.37516369628045        2.60144887333713        3.38910732960952
H            1.80001783354532        3.45528312978734        3.26463037327159
H            1.79260334960118        2.18215220327800        4.14826622863621
