34
 energy: -56.718491615026 gnorm: 0.002693345178 xtb: 6.7.1 (edcfbbe)
C            0.43533207160275       -0.79420366830501        1.12277400584681
C           -0.12009325909186        0.20585822853007        2.15364910422798
O           -0.79946235743584       -0.24202033089626        3.10088543200724
O            0.16210276181344        1.42050395028052        2.00934439063608
C            0.50989228133218       -0.21887287873153       -0.28329723570211
N            1.33521122839687       -1.06647645173478       -1.16322834246468
H            1.44061724264117       -1.04650410191119        1.47131467452674
H           -0.17776874146383       -1.69432349010651        1.17192282785007
H           -0.49323177596925       -0.11704153168411       -0.69836476257820
H            0.96646173077567        0.76833319284160       -0.24045836753025
H            0.89049523042839       -1.97032731771007       -1.32123032651944
H            2.26720260990920       -1.22672443466911       -0.70275695692948
H            1.48542169767911       -0.56793763697216       -2.07869725070489
O            4.26379411176750        1.18623988128981        0.92464812175966
H            3.50519145774637        1.78141682243537        0.76551567401233
H            4.58125950357107        1.38356716957452        1.80966697164715
O            0.88371019984701        3.77061273475675        3.31004654852936
H            0.21148785651261        4.13893172381325        3.89055151314071
H            0.53558952725058        2.91337502036906        3.00638322781945
O            3.70208222986983       -1.36967565117465        0.15483261604333
H            3.93841345256244       -0.46229354696444        0.43513567503298
H            4.48050291154837       -1.73052579689308       -0.28026216380310
O            1.69619091569366        0.50221728326428       -3.34380709896331
H            2.58292593775286        0.60823337688161       -3.70132191548569
H            1.45768256563816        1.36384004115359       -2.95557151720288
O            1.22229918984079        2.86960736640641       -2.00013374408980
H            1.59944610185113        2.89866074416336       -1.10181752965428
H            0.45536587332527        3.44717633456220       -1.99237309849126
O           -1.30558645194077       -2.93156173279412        3.16521780343547
H           -1.26974822004919       -3.21586585882413        4.08448042584595
H           -1.18062641021436       -1.95886341172868        3.18636594125136
O            2.04607821677320        2.82274070533394        0.66933507606981
H            1.36426477619341        2.27774803888727        1.12156144928741
H            2.08016753391248        3.63089222661783        1.19241983119957
