! SP B3LYP D4 def2-TZVP TightSCF CPCM(water)

%maxcore 5000

%pal
nprocs 28
end

%geom
    MaxIter 500
end

* xyz 0 1
H            0.85071085249627       -0.39917955494793       -0.67491263861731
C            0.02583639257483       -1.05544605626013       -0.40351011744639
H           -0.78391913697555       -0.46549387199096       -2.18611655567772
H            0.30998049635366       -2.08877617892099       -0.57917359013520
N           -1.13530176550519       -0.71855479115885       -1.24272392851691
H            0.44295077747113       -1.41425635891066        1.67604954816387
C           -0.27863302230341       -0.86797230287018        1.07235571428953
O           -0.38044127163170        1.50417212226645        0.70593465684580
C           -0.24896799750634        0.57626815927188        1.52488477522330
H           -1.63928632124934        0.07593867696449       -0.82665864443766
O           -0.07433188972996        0.79729414151726        2.76468200572708
H           -1.82970608628783       -1.48623881060472       -1.29215794289731
H           -1.27502314382928       -1.24554660187385        1.29935644549321
O           -1.00933913263347        2.28262320692683       -1.80951501462526
H           -0.30995743752669        2.86114119543664       -2.18803952397848
H           -0.69492126387774        2.00608929981646       -0.93000286037351
O            2.25823782876908       -1.37187789943076        4.53271505581375
H            1.27739423873662       -1.38651641015883        4.51163133708672
H            2.48435987677933       -1.77129671179841        5.39762134207651
O            2.13431687307638        1.20266787166823       -1.28571477317733
H            1.65675646415818        1.97092592812098       -0.92799063165118
H            2.89602505491681        1.10689540370147       -0.68643598941668
O           -0.85079661522540        2.70370285294159       -5.20720781009341
H           -1.57818432365941        2.15148546605426       -4.87760738762972
H           -0.22807384288277        2.07750742856179       -5.62964656544297
O           -3.47716242873597       -2.17174575751771       -1.40779326163513
H           -3.86367902535263       -2.68973451652276       -0.68797859964207
H           -3.52356587943304       -2.71666120503142       -2.22828524477534
O            0.59553697500773        3.86865203202451       -3.21550505241384
H            0.25638022859355        4.71650920928315       -2.88022852339595
H            0.08930791224748        3.64491900084305       -4.02520970077575
O            3.14151175089113        2.82025763109479       -3.19236766744303
H            2.84038503663959        2.11339673571144       -2.56941704408193
H            2.33374888031987        3.34887745869131       -3.32567637598726
O           -1.19114367682623       -4.39187268731697       -2.37920952985527
H           -1.24395521010440       -4.20224706822332       -1.42159832696320
H           -0.58265203421647       -3.70229465818755       -2.72524435742401
O           -1.14804215621365       -3.93388452089570        0.34471212700047
H           -1.66616149975155       -4.72332308491987        0.56738384227131
H           -0.21109449768212       -4.11523853399622        0.56637700350388
O            0.06052276022537        5.73147972069327        1.00800330058973
H            0.61623809305290        6.42018718784156        1.38101796198625
H           -0.50212174310990        5.41577706226580        1.73162662863713
O            1.09778472251882        4.32716213482596        4.20483876336112
H            0.98147864950601        3.74929766238860        4.97744014281865
H            0.19883457828541        4.49733466957306        3.86795561943891
O            3.58717637761019       -3.66922621063404       -4.38944741372630
H            2.79305253249701       -3.71481304695579       -4.95693163867492
H            4.33163880221671       -3.93124486339749       -4.93251454885327
O           -3.02295493525803       -0.07034740798917        4.64378994060672
H           -2.70381805179953        0.84477260161531        4.72003520603442
H           -2.21695115554046       -0.61011061653111        4.75558718491146
O            2.39792227968736       -3.85158005702948       -1.68990062613509
H            2.90295945199402       -3.05395620908880       -1.39015866804173
H            2.92476570548391       -4.22887723003268       -2.40223476783819
O            0.92263786762364        0.71805013069398       -5.89717272680335
H            0.75224272862010        0.42569570503750       -4.96401744273037
H            1.87884785964982        0.91773427943208       -5.89597367943876
O            2.72174930829590       -1.84673184330606        1.85167992862336
H            2.63749765311616       -1.75143798470547        2.81431457150382
H            3.66199586663314       -1.67379822643454        1.65896328751870
O           -1.51713268834694        4.52467263941789        3.20087563793659
H           -1.96328867103181        4.14111128202643        2.41111533548843
H           -1.63045221593333        3.81504370522879        3.86365698198159
O           -1.38482158677433        2.20730738439903        4.64821333503224
H           -0.73697226374004        2.22664847496812        5.36849876827751
H           -0.91241177218616        1.74847852273306        3.91750442876393
O           -3.18902367479718        0.62951394845498        0.33125573231834
H           -3.16239562577970        1.54313955601226        0.65471661213654
H           -3.81149273393599        0.60754998941126       -0.41669466023613
O            2.26281305924694       -2.27967856625503        7.07188098130694
H            1.85536504527564       -3.14232980605303        6.87379076645689
H            1.51990563241331       -1.66804414451510        7.24519482693677
O            1.20193645448993       -3.65047500184482       -5.77632888177267
H            0.78148145491213       -2.87840484819683       -6.24095116713732
H            0.76566489082338       -4.43368019800470       -6.11629690654742
O           -0.67771935838338        5.87083908118304       -1.79418087001349
H           -0.36850314160612        5.94599777914792       -0.88016860260215
H           -1.52994200231971        5.39504746343448       -1.72133800086532
O            0.39799893761880        0.32950482596459       -3.30050009068244
H           -0.06899535341277        1.17463466362062       -3.33987004712597
H            1.16296631385995        0.49936885006484       -2.72981069169553
O           -0.49292762168578       -1.25262088002506        4.39812072558898
H           -0.83863572122780       -1.99809787849443        3.85934001467738
H           -0.34028029064486       -0.50752632167662        3.76424158513930
O           -3.32319757405406       -3.48382489555362       -3.70955489758248
H           -2.59809289632327       -4.02183918035962       -3.31504709419010
H           -2.84311147461735       -2.76044518428756       -4.16854517047997
O            4.04170649662863        1.49132522859447        0.66091285030459
H            3.49364883764177        1.77254661365683        1.40677975658816
H            4.31236191223576        2.32124455616999        0.21172190539520
O            0.62099126682622       -2.56051022634211       -3.28770678545148
H            1.23075206691070       -2.99666619673204       -2.65356096875670
H            0.80881972270328       -2.97206871143230       -4.14762048369075
O            2.96529629967184       -1.07107735705451       -3.62180684660037
H            3.34927361240065       -1.91287260519256       -3.91719390029690
H            2.00288960928777       -1.25123642226938       -3.57683397758861
O           -1.72282968631373       -3.10445484072099        2.85894273377380
H           -2.55283360445793       -2.60374218318789        2.79909361917574
H           -1.50048821572974       -3.31508876092891        1.92017894644398
O           -2.44985507350093        3.21129167990469        1.05611975565453
H           -2.60654887747749        3.70041237002331        0.22551600236306
H           -1.59356991040541        2.74529311808605        0.93277293649250
O            0.17006526063434       -0.42875543597496        6.97264172467982
H           -0.14677074829210       -0.78675415957787        6.12457157937762
H            0.40589813278853        0.49352161262501        6.77838135821420
O           -2.80166436608118        4.16319917002712       -1.48614079653613
H           -2.17435483397535        3.40707161380035       -1.68593257675792
H           -3.54129801318514        4.07516358643879       -2.08937588572364
O            2.90977734453653        1.21540396924187        4.91400820033270
H            2.73325407205584        0.25534003143512        4.77860411522110
H            2.82536473842036        1.61860099320397        4.03059537833799
O            1.01451971763010       -4.61178451345584        6.18336871452429
H            0.90311390400488       -4.71238033452289        5.21602142730137
H            0.25650428440725       -5.04919121597474        6.57986199819668
O           -3.19065846314041       -5.67829715667878        0.96630180023134
H           -3.78093674366122       -4.90160158595096        0.96455576621918
H           -3.61092269189014       -6.34681319187589        0.42081156794075
O            4.11871444382322        3.80036210936834       -0.77852753975175
H            3.18710808202753        3.90550336751651       -0.48974904649454
H            4.04009398049224        3.56297159230521       -1.72194498424202
O           -4.74720877121797       -3.34178102849486        0.81316020420150
H           -4.41136679634359       -2.63103171858029        1.39291743225885
H           -5.70243280323956       -3.33925621641230        0.91028995240029
O            0.38421648199591       -4.87255829277285        3.52217237030948
H           -0.42345201411933       -4.34834214645321        3.40060212078740
H            0.89552824016601       -4.75001841642601        2.70690373597848
O            1.50656297778298        3.54983471761927        0.05962061262224
H            0.94212800067541        4.31381462136080        0.25525335655683
H            1.68698815772780        3.13961500556539        0.92560402673026
O            2.07343075516484        2.45215031751087        2.56373720167002
H            1.29263113076958        1.86699371259573        2.65984431115018
H            1.84999627823833        3.24009903051279        3.11058833162352
O           -0.14350518738240       -1.61140371134513       -6.78459874171773
H           -0.84749766586882       -1.58878139411071       -6.09764455872246
H            0.31916276715574       -0.75653335295924       -6.65926988291792
O            1.49842731963003       -4.13436401580314        0.96972329181264
H            1.87572740874481       -4.29383201382102        0.08907268934076
H            1.94342482730420       -3.31972465109634        1.28735138026911
O            3.56488469968753       -1.55481942219159       -1.06360924789922
H            2.93416908125017       -1.14859372253458       -0.45749032021886
H            3.39807062175006       -1.16669115758322       -1.95495040555065
O            0.93156296562707        2.27480199451360        6.26952196839046
H            1.29739316585798        2.60613723487493        7.09245388374712
H            1.69752360439633        1.85932567010530        5.77764950486795
O           -4.60773353847207        0.13821007895642       -2.00503881387757
H           -5.52378791701651       -0.02068809959920       -2.23316608794051
H           -4.20421284456994       -0.75225296567253       -1.81360534828874
O            5.25092731521251       -1.01202464268424        1.02845193358321
H            5.01328990540319       -1.32921719095815        0.13854324765040
H            5.02326656659967       -0.06634302824034        1.00854589545436
O            3.53015377923726        1.06226372709563       -5.25550281701776
H            3.51350793036631        1.79915654656305       -4.61154599285089
H            3.45392560218407        0.26142345457385       -4.69231978104658
O           -3.71760476335009       -1.24108658897957        2.24584850921224
H           -3.66219186918920       -0.77710820457223        3.09975478800718
H           -3.52818442046554       -0.56424984157209        1.55714316444857
O           -1.67886612668742       -1.46619534459620       -4.53680317002369
H           -0.88908442142874       -1.65786888438628       -3.99981720063294
H           -1.96351359848071       -0.56581907331405       -4.27563999902913
O           -2.54708847382203        0.97230588309972       -3.63265441752105
H           -2.01774247889345        1.38850542548163       -2.92133984705555
H           -3.37571190314409        0.71805003201499       -3.19346049512070
*
