34
 energy: -56.711947097272 gnorm: 0.000446998865 xtb: 6.7.1 (edcfbbe)
H            0.62956570619248        0.07353602305104       -0.62062371739759
C           -0.13720122865022       -0.69905568628673       -0.54838397871608
H           -1.11081838661612       -0.04124910627123       -2.28000945498588
H            0.23326732406662       -1.62617493893544       -0.98461037440877
N           -1.33140226030353       -0.25483760853979       -1.28882288388669
H            0.40208925987297       -1.12283001040118        1.50033937866925
C           -0.49610516625214       -0.93150964679699        0.91302441194117
O           -1.33289137230279        1.32847638934266        0.94171649570929
C           -1.22120090030532        0.26062025631142        1.57069281871801
H           -1.65784730916902        0.59728616069935       -0.80895093314460
O           -1.69729714427768        0.05563992266006        2.72150167574976
H           -2.08975863138543       -0.98929044020614       -1.22496250357036
H           -1.14526934163195       -1.80103209767455        1.01551216174347
O           -1.48834197456642       -2.34834761152865        3.90807392028020
H           -1.36355431873438       -2.20537583993204        4.84993151150208
H           -1.51707183528290       -1.45405819848310        3.49581034424818
O           -1.32856093121482       -4.20941813352131       -0.43854252316287
H           -1.49889645297175       -5.12648023095626       -0.67047190844233
H           -1.04696491467316       -4.22151991477698        0.49360344798917
O           -3.16818932235061       -2.20332038110130       -0.87675826035659
H           -3.53365161535296       -2.03187994501534        0.00685371559743
H           -2.57625330198985       -2.97703673102711       -0.77441999926171
O           -0.69878460929313        0.43411174972947       -3.91440040060437
H           -1.19204424571507        0.03205350720205       -4.63614655165289
H           -0.57464264797314        1.36352224666489       -4.12633273819486
O           -0.56038167170859       -4.33676676560549        2.22031869104490
H           -0.91056718886913       -3.65987409618646        2.82583828542524
H            0.27030428116061       -4.63872335574417        2.59822895983517
O           -0.77469917684934       -4.58364757098476       -5.70939182425193
H           -0.07742936109100       -4.46407397848847       -5.05596425802105
H           -1.61103282095937       -4.55309425991350       -5.23286713325621
O           -3.79252537077404       -1.70508041632177        1.84556309166362
H           -3.72978074649278       -2.40822279180573        2.50140806474032
H           -3.25046132351753       -0.98145649901659        2.19448246854960
