37
 energy: -59.878243906913 gnorm: 0.000293812858 xtb: 6.7.1 (edcfbbe)
N            0.10746385925492       -1.08107326534114        1.96741595073026
C           -0.19091827309702       -1.24387087032552        0.53277822510050
C            0.20374233350394       -0.03134849168955       -0.30088927006163
C            0.02860799226176       -0.38759393186977       -1.77099959648565
C            0.10740013613031        0.78361706668002       -2.76446743686248
O            0.34494401353425        1.93377347361826       -2.35232538529658
O           -0.08947477042166        0.47565890271442       -3.97434717851481
H            1.14680422919768       -1.06988154114306        2.11165909226189
H           -0.29955092811751       -0.22082761988486        2.33223572216396
H           -1.25645712577573       -1.43105909021028        0.39982854845764
H            0.36393141640922       -2.10429012119741        0.16322171464832
H            1.24391961326937        0.24422521635668       -0.12434846293034
H           -0.41416668084219        0.84033257748553       -0.07502457282698
H           -0.94751199820269       -0.84929986093294       -1.93743405733329
H            0.79185965519679       -1.10293704453432       -2.08147872363338
H           -0.27064821048806       -1.91794868741691        2.47692001003736
O           -0.10111137851046       -4.72245332063713        0.47585791603537
H           -0.25927014407552       -5.66463763176430        0.36730241304388
H           -0.24354472018333       -4.33352477282018       -0.41012279703091
O           -0.80654572137607       -3.46828911125074        2.87034756906690
H           -0.59596955571642       -3.95331027012077        2.05138344813790
H           -1.72161201695255       -3.66438272703452        3.08464558579357
O            2.77219373767343       -1.50160214187608        2.26369300314797
H            3.10533136606620       -1.72053221395912        3.13871849325227
H            2.75903381221339       -2.33244048868861        1.75148699124218
O           -0.90565378520458       -2.08802290603342       -4.28218886936481
H           -0.81955450842909       -2.29944364277413       -5.21627329111816
H           -0.61269264651103       -1.14971412666285       -4.19544746307101
O           -0.10516176577776       -3.84086824370157       -2.10664190010007
H            0.81860570190739       -3.52606647368649       -2.09600367262984
H           -0.54017099813723       -3.30701056129740       -2.78594932404662
O            2.49074245400256       -3.88223450420153        0.85382433542438
H            1.55601818425716       -4.17825326205465        0.80284543564160
H            3.01364225208590       -4.66595646620578        1.04550371701864
O            2.45979043212197       -2.86434150758067       -1.71465372181201
H            3.30520484279383       -2.95703552911365       -2.15945740491513
H            2.59073319601307       -3.16381581081266       -0.79041504319757
