34
 energy: -56.711797823375 gnorm: 0.000158435714 xtb: 6.7.1 (edcfbbe)
H            1.16240582391695       -0.72560670070732       -0.29071286110363
C            0.12295131489412       -0.39757702551979       -0.31862931350527
H            0.58271891161327        1.24553783957892       -1.54095021888394
H           -0.42801049169909       -0.97547562276390       -1.06143795684152
N            0.08596173437952        1.03890010739939       -0.65313823085260
H           -0.45753663312783       -1.66573324045729        1.32871041554936
C           -0.52149578108191       -0.61726674638563        1.04105431913513
O            0.89080066136125        1.12716015903804        1.91530091135735
C            0.07428142538585        0.22233538501086        2.18019377375852
H            0.54299646509433        1.50901296600602        0.15104895178297
O           -0.35166851944053       -0.03044058818244        3.34240653468771
H           -0.89606538360673        1.37058408286499       -0.71752737549731
H           -1.58257247991088       -0.36562861547446        0.99667808021906
O           -2.56481693567625        1.54582221587858        3.69752300761521
H           -1.75720000462607        0.99959764471470        3.68084128905825
H           -2.34001931049129        2.34947292157422        4.17573734332379
O           -2.06418609130196       -2.16591667580825        3.42069459368967
H           -1.43734401412475       -1.40975380981451        3.44237462411184
H           -2.49603692790625       -2.17869757369706        4.27954842378022
O           -2.52516431123102        2.07604418409476       -0.83040691979285
H           -2.55186350147524        3.03883262434227       -0.82481965467042
H           -3.00821596982306        1.77943920535504       -1.60939006342683
O            1.37576467945133        1.50510197899638       -3.07670924247676
H            2.33251942380967        1.56796459731190       -3.13995485800080
H            1.05945617367963        1.04695285481270       -3.86119182425073
O           -2.27143877069346       -2.33472465542558       -1.34014649291380
H           -2.78039911196767       -2.19653598262815       -0.51723699799825
H           -2.38395524671477       -3.26291358908646       -1.55875535794111
O           -3.88654566276305        0.79846223231297        1.31130284401328
H           -3.38447117720755        1.27974702059423        0.62878268847642
H           -3.52963752042149        1.08812162091532        2.16580442367862
O           -3.62921144249153       -1.95904063444822        1.05842261450783
H           -3.10219807329229       -2.15204624797173        1.85315787759300
H           -3.87525525257622       -1.01711993250650        1.14143365185501
