13
Coordinates from ORCA-job 02_Alanine_zwitterion E -323.747191993048
  C           0.03071192361103      0.46460896933085     -2.32645664487136
  C          -0.33142585966150     -0.47612157021431     -1.15781049711521
  O           0.62638702107884     -0.86283155187440     -0.41051186661389
  O          -1.53020169908155     -0.76738532114076     -1.00206920567138
  C           1.44014070669867      0.28524431850467     -2.87513390643577
  N           2.42681407026029      0.42003388508587     -1.75638929221042
  H          -0.09950168086678      1.49246464320771     -1.97078230148304
  H          -0.68415444342726      0.31910413287479     -3.13544859377867
  H           1.67696464064938      1.01806723558547     -3.64335193739499
  H           1.57569162743982     -0.71374837690460     -3.28679567262460
  H           2.53446063766903      1.38929793806887     -1.46078479301883
  H           1.97338181731317     -0.14352721300578     -0.97270639473845
  H           3.34573123831683      0.05619291048162     -1.99895889404337
