34
 energy: -56.701102149267 gnorm: 0.014820988196 xtb: 6.7.1 (edcfbbe)
H            1.45775887020265       -1.44518171451194        0.59862816629666
C            0.37521642562526       -1.41304413396424        0.47750428495502
H            0.59688327906258       -1.34265279783004       -1.60288412815211
H           -0.02971234008401       -2.42197654603750        0.56713681103221
N            0.05318718663362       -0.87216239765990       -0.85435745788944
H           -0.01924072275467       -0.87979934720911        2.54702429523541
C           -0.21566068119497       -0.50088314395963        1.54522525633467
O            0.69447356373413        1.39330816863492        0.36324214752821
C            0.33316869818749        0.95185437505595        1.48269371408563
H            0.31053414500226        0.13770458565672       -0.79356523222381
O            0.36038563517095        1.59226193682254        2.55080769961036
H           -0.96918110798998       -0.95541562316429       -1.00901934679444
H           -1.29769735689021       -0.42277248045769        1.42523097170199
O            1.75325408152649       -2.13097023341750       -2.63783415560959
H            1.45383249776318       -3.00182667235701       -2.94935805547637
H            2.61646937812392       -2.25820578263786       -2.25363608296600
O           -2.74135619287497       -4.01535857558166       -0.71353634889557
H           -1.78903437919935       -4.22599150360908       -0.69692217706951
H           -3.11532610481833       -4.46979178237907       -1.48057615066837
O           -2.71633772237865       -1.30863047446928       -0.97368065733330
H           -2.74776279022863       -2.29345691743310       -0.91769232058418
H           -3.42254869883602       -0.98487174270469       -0.41391059077561
O            3.40317957119355       -4.81960964970253        3.32425168639371
H            2.55928489778608       -4.68697640811080        3.76293875680129
H            3.70900118917721       -3.93842504184810        3.04384175457124
O            0.78468311403930       -4.62046762488227       -3.51585080701957
H            1.35146298009028       -5.31514708600319       -3.86596714966479
H            0.13313933833843       -4.41830428226548       -4.19546400917375
O           -0.04702900194815       -4.56422070195196       -0.79528939759245
H            0.24491370960785       -4.59741203001437       -1.72097252595608
H            0.41363833655215       -5.26668852076655       -0.32990077001985
O            4.26829375637355       -2.20008830073168        2.61108907576630
H            4.26696842396363       -1.53891340848075        3.30667497018342
H            5.07331002101035       -2.08142014204571        2.10239177341776
