34
 energy: -56.706931017814 gnorm: 0.000467099839 xtb: 6.7.1 (edcfbbe)
H            1.53383514833529       -1.31668907379203       -1.17893057091312
C            0.51312469322472       -1.30708114623592       -0.79633824069367
H           -0.19892796815662       -0.68455400233869       -2.68789187963894
H            0.13479110007276       -2.32914396320861       -0.80751884586915
N           -0.30799075622609       -0.44686434999270       -1.67076007510357
H            1.11460273480283       -1.36332078385766        1.28579608936714
C            0.50807912977673       -0.74825587725352        0.62266469717131
O            0.96542067065350        1.42889416710930       -0.30160118218389
C            1.05188342445297        0.70018217861657        0.72584219631359
H            0.05027960913075        0.51603541478419       -1.47077219763424
O            1.51226649046432        1.06783488007911        1.81697215425375
H           -1.29366852292681       -0.50161500671783       -1.41300812486037
H           -0.50460033263474       -0.72622503576216        1.03377969396707
O            1.21397068366601        1.40777943181031       -4.68395892534429
H            1.81790722685295        1.33597294840933       -3.91640604386343
H            0.93050559106366        2.33365427898302       -4.68806311396069
O            2.72687422338758        1.42138996206749       -2.40900865630019
H            2.16321254095834        1.49987954675280       -1.61642447238501
H            3.09028308161756        2.31308361571741       -2.56715599007784
O           -0.13349099660635       -0.89044799904304       -4.35813504540425
H           -0.90449267907263       -0.91391403665057       -4.93115833667727
H            0.37507970616227       -0.08504031861256       -4.59786436583212
O            3.47099229925554       -1.26029900308149       -2.42650904054826
H            3.28129188849029       -0.30588445967595       -2.47975871552221
H            4.42028034088306       -1.35178009225958       -2.53921022166916
O            3.16704318797687        4.06810353616159       -3.05547869207027
H            2.34412530118561        4.15782785818521       -3.56820729343098
H            3.15772053440277        4.76583483236152       -2.39406697486726
O            1.47005754191681       -3.05880502994176       -3.44073513565972
H            2.22639438383456       -2.55079054535264       -3.10933604973855
H            0.92444510702506       -2.40687385037895       -3.91077790429152
O            0.64705193338136        4.22450404087774       -4.38693542509462
H           -0.09168689785627        4.43324830166592       -3.80483393270430
H            0.54838158053698        4.76619958059513       -5.17655937865982
