37
 energy: -59.872239192526 gnorm: 0.000638784001 xtb: 6.7.1 (edcfbbe)
N           -0.13216776164588       -1.01682079045174        1.06762576658100
C            0.89533696320327       -0.06627012753060        0.62254452787776
C            0.30146767698617        0.98442945422305       -0.32260056304544
C           -0.81611471076125        0.48688837383368       -1.25376820570499
C           -0.56673459742382       -0.78885866554862       -2.07184773501432
O           -0.77554428326613       -0.75117508846452       -3.30230436457181
O           -0.23960510924524       -1.83666625903184       -1.45425851177171
H            0.20155051563577       -1.69473509507379        1.76281267970741
H           -0.99964430155225       -0.55278420218509        1.40921207135872
H            1.34443411006479        0.43648880223424        1.47898328494662
H            1.66800621234171       -0.63003229438964        0.09696191220138
H            1.10900525130962        1.40084081353286       -0.92611173309681
H           -0.12783230476963        1.79987812103736        0.26145254407522
H           -1.71876531431165        0.28845899635461       -0.66915702183021
H           -1.05719668827763        1.27427585805076       -1.97020516367632
H           -0.38127043402144       -1.54957593668729        0.19779765770391
O           -4.37269955010134       -4.58065785556449        3.06013566070168
H           -4.93776951864852       -5.07415210448109        2.45962455035812
H           -3.81967880494103       -4.00650363477816        2.49440612435255
O           -1.83483452324415       -1.16077486602841        6.68293662502230
H           -1.97898699503132       -2.03751995451264        6.31139904768041
H           -2.70064485884312       -0.80655742477282        6.90616673169266
O           -0.02681582238236       -3.61036253859929        2.12327269261996
H            0.23190800064028       -4.17258806906881        2.85937448218220
H            0.15064600828769       -4.09859481333679        1.31351202786857
O           -2.69059402029039       -3.05323315330247        1.42748229206556
H           -1.80874211684613       -3.22296536470176        1.81134066631340
H           -2.61053232966600       -3.36305965518791        0.50584426683260
O           -2.17722429847641       -3.04137823755403       -3.95836488300076
H           -1.67055489540935       -2.22208852051622       -3.78800620649873
H           -1.86187568950842       -3.36889730734304       -4.80603310933005
O           -2.00219756725386       -3.87137329727490       -1.12416360197453
H           -1.27820657165284       -3.23574329309569       -1.29247377344121
H           -2.46681195621752       -3.91669914545728       -1.96757335439188
O           -2.72119636609798       -0.31691256544452        1.56179865321096
H           -3.20080721908502        0.01227315136592        2.32607758352948
H           -2.90354512957927       -1.27853531017977        1.50604037837976
