16
Coordinates from ORCA-job 08_Aminobutyric-acid_zwitterion E -363.052667756004
  N          -0.10787644435037      1.13085222437897      0.73252453610901
  C           0.70609812269215      1.63802023407419     -0.41337948947463
  C          -0.16231788663685      1.84527280729506     -1.64802556455116
  C          -0.58043228105018      0.57181938243638     -2.39620041930849
  C          -1.66266092735460     -0.32978608555805     -1.78013105069565
  O          -1.75876767008416     -0.39487979652884     -0.50754216933147
  O          -2.37343878968457     -0.98372106532260     -2.56494368609421
  H           0.47073514488605      0.70423856577077      1.45279636611460
  H          -0.63607672998093      1.88555521934533      1.16708275414007
  H           1.18331257704086      2.56701220780422     -0.10641279442946
  H           1.48278952390740      0.89813887649968     -0.60616988613825
  H           0.42085663396964      2.45843711747527     -2.33885253925129
  H          -1.04126240383671      2.44046442284845     -1.38056472435029
  H           0.30267388808011     -0.06134789862717     -2.54303332749171
  H          -0.92499665419283      0.84398800382973     -3.39430213530209
  H          -0.82193610340500      0.41073578427860      0.31235413005506
