25
 energy: -41.432194904989 gnorm: 0.000152972230 xtb: 6.7.1 (edcfbbe)
H           -2.18117426638505       -0.30092497214225       -2.73872405008479
C           -1.40647399357722        0.44324561160160       -2.93059298320326
H            0.00974098587269       -1.09236339556890       -2.89623325280961
H           -1.40374788498021        0.68700416920206       -3.99346042194457
N           -0.10253325465585       -0.12329592988414       -2.53997280034416
H           -2.65796926702951        2.12537621820373       -2.36880226602524
C           -1.69430305666156        1.69215649734320       -2.10458538530766
O           -0.95223738856491        0.53785180216908       -0.12592137010129
C           -1.70613681884653        1.43219264897469       -0.57574062773562
H           -0.12012662593499       -0.10824035622087       -1.49206098066174
O           -2.45236760191102        2.15468581289379        0.11631241917890
H            0.68225507134658        0.46140442249302       -2.88090349235864
H           -0.92858946532553        2.45081908134652       -2.27751952841588
O            3.13834538856100        3.88849350297444        0.49206165830189
H            2.80116701240426        3.14587165473012        1.00303051300348
H            2.45891573009794        4.56935139061360        0.51079300654737
O           -2.17715211449524        4.77395812783412        0.97915946536104
H           -2.25508572960403        3.84150869822433        0.71011794599477
H           -3.03630709003751        5.00740576817764        1.34510344469045
O            2.11289784547273        1.29757058704228       -3.52680954049053
H            2.96086734995026        1.00750749200899       -3.17664161775320
H            2.20536371701270        2.22253168373602       -3.76893020612532
O            0.08366962974940       -2.70806127717168       -3.53533654778723
H            0.17933473049127       -3.45290877349136       -2.93515838547644
H            0.60900834988752       -2.89170461197516       -4.32041302421866
