34
 energy: -56.712005950908 gnorm: 0.000206905834 xtb: 6.7.1 (edcfbbe)
H            0.63678573376615       -0.38608837358185       -0.93876863887152
C           -0.02318311764754       -0.83328660221736       -0.19361225822686
H           -1.71395699422718       -0.13302710529026       -1.20895642678544
H           -0.11760041298756       -1.90188943237775       -0.38687063593974
N           -1.34675024036431       -0.18170957614299       -0.25946302191952
H            1.52395780875465       -1.10621619463535        1.28351825448054
C            0.55894168863930       -0.61223442282307        1.19484284623899
O            0.01626770956681        1.71981564736889        0.97829433667404
C            0.73600744037125        0.87629883354247        1.55920485747894
H           -1.16610868435410        0.77696435971674        0.12751542632484
O            1.58288413168077        1.14982084668493        2.44244054555519
H           -2.01321332886736       -0.69646133608457        0.36494469736190
H           -0.10073039585567       -1.03321964772991        1.95590566426574
O            1.54953840812604       -3.29902748286699        2.79776069980319
H            1.81333074153480       -2.46686662222791        3.22814641703101
H            1.96227693293972       -4.00521365416513        3.30296558130413
O            2.40811344729754       -0.87404449157283        3.95887881276590
H            2.07898575022556       -0.10848552294773        3.42273325006947
H            3.34139805208820       -0.69759556296206        4.11426103723179
O            0.79549021415567       -1.55857930225536        6.11531145711267
H            0.80451333574223       -0.80454166682104        6.71182763906742
H            1.35145205601678       -1.30826537890412        5.35314097466731
O           -1.24738773459028       -3.42953406928874        2.63056317419769
H           -1.44394491001857       -3.17280694360626        3.55790997175110
H           -0.27537769183519       -3.41478475342626        2.56953431888370
O           -2.34101995315358       -0.03786818076111        3.58362226064102
H           -3.01309826445149        0.62848706702293        3.74748170075833
H           -2.64315308325402       -0.55738569703713        2.81220894446748
O           -1.67872305778898       -2.29794074750726        5.06999562866722
H           -0.81843969647098       -2.14096788091166        5.49999322378664
H           -1.93008271155314       -1.43776836481496        4.68230505010017
O           -2.86980168053657       -1.69571803947925        1.42400471466770
H           -2.25385536849771       -2.37279966821708        1.79930620509777
H           -3.68229012442960       -2.16263903365761        1.20914829127392
