37
 energy: -59.870936530459 gnorm: 0.000740670684 xtb: 6.7.1 (edcfbbe)
N            0.20896939100005        0.02688282025750        2.32502242077027
C           -0.17938864841113        0.25026699370384        0.92102223465479
C            1.03029570420570        0.66796212930003        0.09039069773075
C            0.64722555572396        1.00435578751469       -1.34780090509437
C            0.52989164050157       -0.23094147527983       -2.26162281418874
O            1.19312217245937       -1.24935846147923       -1.96932909296924
O           -0.19898707856908       -0.12930950524764       -3.27770811832596
H            0.89848734702979       -0.74913455782838        2.41213220599913
H            0.63606682765675        0.87114188731862        2.71001181087192
H           -0.93492576502986        1.03564182625593        0.87631838748774
H           -0.61904504848619       -0.66124043726595        0.51516662288349
H            1.75773140829087       -0.14492339671021        0.04726172214522
H            1.49956145375472        1.54447765771106        0.54033715415961
H           -0.29013762395850        1.55884874093410       -1.40723474213876
H            1.42346424845962        1.61878939573392       -1.81310005077451
H           -0.61568942675438       -0.23267495024281        2.92918811712113
O           -2.64061639727105       -2.16420226778717        0.45567142675129
H           -2.66262693842852       -2.86959551579515       -0.19599744867511
H           -3.54584039068252       -1.85788267567729        0.56544020668119
O           -1.60408562081653       -0.64707640982040        4.21606946658073
H           -2.05460158118699        0.03599826381181        4.71922344731667
H           -0.87483460243885       -0.98215032136016        4.77957674892423
O            1.38833493138773       -4.49987963465432        2.10837876124278
H            0.56020111210092       -4.90193849069099        2.39095143333243
H            1.46431422796540       -4.63950797431352        1.15981473885953
O            2.00770023150887       -1.98470419783802        3.01312741752636
H            1.76980308086732       -2.88064146089472        2.70468236586121
H            2.95710773625796       -1.90123013432042        2.89037828181442
O           -2.04881368883873        1.86397883503015       -3.39168272319090
H           -1.39762374041192        1.12868567094629       -3.37441542351348
H           -2.32907998289154        1.93763311936517       -4.30925395870619
O            0.85988927234097       -3.46889726181942       -3.52990141378424
H            0.34249914175227       -3.12763482784510       -4.26558951862374
H            1.02366020708090       -2.68958509603971       -2.95105891104266
O            0.70081706276677       -1.45433582194105        5.42428792745778
H            0.80068644933954       -2.21061985022150        6.00724974701754
H            1.23312533178867       -1.64504940270928        4.62849077791780
