34
 energy: -56.715782685576 gnorm: 0.000233559919 xtb: 6.7.1 (edcfbbe)
C           -0.22107145909453        0.49950027113049        1.37004830680459
C            0.31234338183826        1.60149285058155        2.30993456089948
O           -0.49627983574627        2.23204096055986        3.00806252087679
O            1.56192481341831        1.78197141039771        2.31444015497846
C            0.25517796086612        0.71525241583044       -0.06134382533091
N            0.19087157601444       -0.53480035638903       -0.84024492997835
H            0.17502932190711       -0.44280852862426        1.75340280766156
H           -1.30736623944270        0.49394504500735        1.45419130240573
H           -0.34555805406743        1.49171085616304       -0.53675594425608
H            1.29142272765680        1.05363481488871       -0.03320468628042
H           -0.77019238013478       -0.86238285976234       -0.92779910477596
H            0.76951309713578       -1.28119160627347       -0.33722841958830
H            0.61788340165081       -0.39080817110144       -1.78231483668392
O            3.89464172952124       -0.28366258928138       -1.50677627122844
H            3.11156269250550       -0.04243598966745       -2.03252688696546
H            3.68230910546128       -0.07416072608840       -0.58248473879909
O            1.78138952897563       -2.23069940941463        0.46058709277757
H            2.33814745727353       -2.65718920342368       -0.23169995933677
H            2.36213195347903       -1.56387608144055        0.86802656788999
O            1.86380432911171       -2.84292697702172       -4.05535413752683
H            2.40709093367649       -3.03806316707223       -4.82470807454428
H            1.11768245438431       -3.45146573167125       -4.06922648134168
O            3.28899019668569       -0.02067072355834        1.26306624684285
H            2.68186632934080        0.65032538618457        1.64719431670820
H            4.05574813445352       -0.04289923621819        1.84096487862298
O            1.58600161662267       -0.21158001264837       -3.16620912297991
H            1.41690456559461        0.35588262663955       -3.92247928489481
H            1.70631461189394       -1.11783082128273       -3.50513592405518
O            2.20174824404449        3.81197564477951        4.06598123607923
H            1.33594309776326        4.03520261526112        4.42181766787864
H            2.02919415185919        3.08694599563819        3.42693299111156
O            3.35814904699285       -2.94494968889469       -1.61257484462600
H            3.75075181801140       -2.04438428977247       -1.60285687654872
H            2.85926069037641       -2.98604772340759       -2.44490230181157
