49
 energy: -431.763207284363 gnorm: 0.000546145767 xtb: 6.7.1 (edcfbbe)
N       -0.1265482226      0.4800073891      0.9542042580                 
C        0.4945467639     -0.3305311018     -0.1048064895                 
C        0.3167324002      0.3673611799     -1.4487906764                 
C        1.2322143916     -0.2146465570     -2.5316628128                 
C        1.4438493968      0.8210441254     -3.6287010888                 
O        2.1175171008      1.8418273988     -3.3370815719                 
O        0.9280830428      0.6376483688     -4.7587904629                 
H        0.3461813502      1.4153690849      0.9787165750                 
H       -1.1423925818      0.6169041210      0.7619085602                 
H        0.0427232919     -1.3218307635     -0.1259926771                 
H        1.5590806746     -0.4318682604      0.1111081390                 
H        0.5635727411      1.4214858419     -1.3227200232                 
H       -0.7196676848      0.3031411527     -1.7788206616                 
H        0.8202123561     -1.1272638123     -2.9607317856                 
H        2.2136552169     -0.4321890011     -2.1054779837                 
H       -0.0133453657      0.0252329122      1.8785424139                 
O        0.2670386519     -0.7306451930      3.4403065603                 
H        0.8879844542     -0.2773185901      4.0180701052                 
H       -0.4880055786     -0.9983696221      3.9720681590                 
O        1.1392943253      2.5245321702     -6.8026877562                 
H        0.2760436623      2.5422441198     -7.2281970539                 
H        1.0856113534      1.8373989868     -6.1096772496                 
O        2.4491627043      4.1556979914     -4.8556349877                 
H        2.1341650808      3.9244582741     -5.7406302385                 
H        2.3086636454      3.3391713894     -4.3411777699                 
O       -1.8002171577     -0.1033865248     -4.3861721052                 
H       -0.9014753630      0.2328783254     -4.5304497024                 
H       -1.7628669458     -1.0311641654     -4.6456198798                 
O        3.6641503426     -0.5566519594     -5.4672586024                 
H        2.8560256717     -0.0650996897     -5.2526944523                 
H        4.3797660121     -0.0147721295     -5.0870354352                 
O        4.8887547497      2.7877894067     -3.1038156282                 
H        4.9542774534      3.6418799240     -3.5429412491                 
H        4.0362437152      2.4253703858     -3.3799440949                 
O        0.9325140807      3.9446527976     -1.7652618045                 
H        1.1442584100      4.8039119610     -2.1406045220                 
H        1.3453312317      3.2944775284     -2.3520578976                 
O        0.3142858317     -2.0375920249     -5.4152140972                 
H        0.6349623528     -1.1279068535     -5.2893541477                 
H        0.6433958269     -2.3256625162     -6.2715526453                 
O       -3.1472009602      1.2433326509     -2.3394769704                 
H       -2.7611053362      0.7019066746     -3.0478367553                 
H       -3.3043660786      2.1105149122     -2.7238357165                 
O       -2.8087640921      0.8901305964      0.4161041883                 
H       -3.1938160429      1.6870849096      0.7925091542                 
H       -2.9761386620      0.9268114888     -0.5404580753                 
H        4.2651071056      2.1031033850     -0.9731597867                 
O        3.4018074447      1.7356261260     -0.7563799002                 
H        2.9117524066      1.7517799229     -1.5959404466                 

             
          
