49
 energy: -431.763207284363 gnorm: 0.000546145767 xtb: 6.7.1 (edcfbbe)
N       -0.0846084845      0.4227112001      1.3384837132                 
C        0.2347935304     -0.2043464175      0.0452182103                 
C        0.1901054386      0.8452938470     -1.0567948472                 
C        0.5760920751      0.2525057603     -2.4107614239                 
C        0.7840885760      1.3433464728     -3.4539139171                 
O        1.6099683880      2.2570642237     -3.2116229701                 
O        0.1154246838      1.2899084209     -4.5197334161                 
H        0.5207858790      1.2564979723      1.4879558716                 
H       -1.0780010934      0.7452868292      1.3420144541                 
H       -0.4859696795     -0.9954165388     -0.1606302612                 
H        1.2332072154     -0.6430111789      0.0813804471                 
H        0.8977820535      1.6377302780     -0.8184520607                 
H       -0.8069607463      1.2817828239     -1.1242561099                 
H       -0.1831814842     -0.4421080825     -2.7701400024                 
H        1.5224094241     -0.2847442739     -2.3119515379                 
H        0.0508276941     -0.2488355559      2.1136432227                 
O        0.2562097398     -1.4715173139      3.3796014975                 
H        0.9701878376     -1.4273021241      4.0215375609                 
H       -0.5135299399     -1.8466558265      3.8162098211                 
O        0.8867529609      2.4665091080     -6.9014656252                 
H        0.0768874984      2.6385732170     -7.3929904098                 
H        0.6107122055      2.0408594645     -6.0648998618                 
O        2.2778258538      4.1947021009     -5.1263402122                 
H        1.9607585813      3.7895915487     -5.9486584144                 
H        2.0447996145      3.5422045887     -4.4385901567                 
O       -1.4522869011     -0.9785246863     -5.0223303318                 
H       -0.8258516615     -0.2374575880     -4.9292525531                 
H       -1.2483647077     -1.4019990535     -5.8607880119                 
O        1.4544700717      2.7431184244      1.5989153807                 
H        1.4012265404      3.2489716544      0.7729340213                 
H        2.3842601260      2.7143431046      1.8402988055                 
O        3.9579210358      1.1585965396     -4.4642872895                 
H        4.1777060984      1.8497297597     -5.0959067584                 
H        3.1106739681      1.4211394973     -4.0621527267                 
O        1.5370223027      4.0454834335     -0.9293227535                 
H        1.8449337396      4.9258175869     -1.1623345905                 
H        1.5409871049      3.5277736345     -1.7470621072                 
O        1.5634575890     -1.1224488735     -4.9748202394                 
H        1.1470818034     -0.2431248309     -4.9943602389                 
H        1.5445927474     -1.4467910137     -5.8794544525                 
O       -2.6547065335      1.4548147461     -3.7998723053                 
H       -2.8854880518      0.5631999085     -4.0902903083                 
H       -1.7261268546      1.5619936642     -4.0567367094                 
O       -2.7006324462      1.3068640173      1.2923639649                 
H       -2.9095684256      2.0279520335      1.8935110712                 
H       -2.8665576000      1.6390963794      0.3947918078                 
H        4.5914648502      1.9654510169     -2.1151866836                 
O        3.8218449699      1.6211142943     -1.6534134162                 
H        3.0487899283      1.8454775606     -2.2030594520                 
             
          
