49
 energy: -80.250781978283 gnorm: 0.000429145839 xtb: 6.7.1 (edcfbbe)
N           -0.12654822256095        0.48000738909314        0.95420425803818
C            0.49454676394006       -0.33053110177493       -0.10480648954613
C            0.31673240021554        0.36736117991415       -1.44879067644144
C            1.23221439160134       -0.21464655698265       -2.53166281283374
C            1.44384939679354        0.82104412535554       -3.62870108881776
O            2.11751710079203        1.84182739875813       -3.33708157191455
O            0.92808304279731        0.63764836875884       -4.75879046288001
H            0.34618135022763        1.41536908490915        0.97871657501424
H           -1.14239258182724        0.61690412104439        0.76190856019429
H            0.04272329193682       -1.32183076345534       -0.12599267714010
H            1.55908067460092       -0.43186826042166        0.11110813898741
H            0.56357274113339        1.42148584192061       -1.32272002317460
H           -0.71966768484803        0.30314115270212       -1.77882066163033
H            0.82021235613919       -1.12726381231209       -2.96073178562397
H            2.21365521690617       -0.43218900112834       -2.10547798371937
H           -0.01334536573555        0.02523291219616        1.87854241387421
O            0.26703865189292       -0.73064519297333        3.44030656026406
H            0.88798445421005       -0.27731859011610        4.01807010515486
H           -0.48800557859530       -0.99836962209209        3.97206815897888
O            1.13929432530551        2.52453217021839       -6.80268775623802
H            0.27604366226689        2.54224411978046       -7.22819705386335
H            1.08561135336448        1.83739898680317       -6.10967724963695
O            2.44916270427474        4.15569799141429       -4.85563498766277
H            2.13416508083002        3.92445827407354       -5.74063023847767
H            2.30866364539783        3.33917138939886       -4.34117776993455
O           -1.80021715769817       -0.10338652478975       -4.38617210517442
H           -0.90147536304126        0.23287832544126       -4.53044970237177
H           -1.76286694577130       -1.03116416535618       -4.64561987976566
O            1.34767278781115        2.79832120773376        0.79363518200833
H            1.04031471415024        3.36674991366414        0.07034636495304
H            2.18311687235088        2.42175011694328        0.46116474941501
O            4.88875474972239        2.78778940668507       -3.10381562815194
H            4.95427745344916        3.64187992402732       -3.54294124906491
H            4.03624371521592        2.42537038580602       -3.37994409494884
O            0.93251408065481        3.94465279755107       -1.76526180446717
H            1.14425841001008        4.80391196095151       -2.14060452199747
H            1.34533123169321        3.29447752840750       -2.35205789755148
O            0.31428583168021       -2.03759202487276       -5.41521409718055
H            0.63496235275820       -1.12790685350478       -5.28935414771654
H            0.64339582687348       -2.32566251621218       -6.27155264531596
O           -3.14720096024890        1.24333265086938       -2.33947697040735
H           -2.76110533621164        0.70190667459905       -3.04783675525741
H           -3.30436607858706        2.11051491217535       -2.72383571653253
O           -2.80876409209937        0.89013059635252        0.41610418830668
H           -3.19381604293674        1.68708490958805        0.79250915417878
H           -2.97613866200244        0.92681148880665       -0.54045807532208
H            4.26510710558692        2.10310338496393       -0.97315978673329
O            3.40180744470495        1.73562612602640       -0.75637990015120
H            2.91175240658851        1.75177992288276       -1.59594044660540
