37
	Energy:      -0.9717771
N          1.74774       -0.18231        0.78063
C          3.14444       -0.04999        0.36844
C          3.25464        0.71520       -0.95665
C          4.72049        0.85161       -1.39167
C          4.88693        1.59621       -2.68978
O          3.92358        2.02852       -3.30430
O          6.12506        1.79138       -3.18063
H          1.32084        0.76342        0.91203
H          1.20995       -0.71682        0.06013
H          3.58932       -1.06290        0.25095
H          3.71011        0.49217        1.15878
H          2.81355        1.72729       -0.82865
H          2.68548        0.17141       -1.74210
H          5.16420       -0.16029       -1.51116
H          5.28296        1.39664       -0.60476
H          1.70542       -0.70055        1.68755
O          5.43948        4.39432       -0.71416
H          4.69004        3.94588       -0.24750
H          5.12060        4.50636       -1.64491
O          5.91575        2.13660       -6.41596
H          6.84341        2.15198       -6.06975
H          5.45462        2.86053       -5.92210
O         -1.44494        1.00382       -0.19526
H         -1.39910        0.43128        0.61144
H         -0.99844        0.47307       -0.90201
O          2.43343       -3.60089        1.40588
H          3.29181       -3.23010        1.73178
H          1.77920       -3.36788        2.11174
O          7.69155        0.90686        0.85896
H          7.68512        1.79075        0.41237
H          6.87109        0.90283        1.41355
O          1.37698        4.06085       -1.64613
H          2.35322        4.22644       -1.64456
H          1.25361        3.31112       -2.28119
O          2.85703       -2.63727       -2.21108
H          3.80632       -2.36282       -2.27489
H          2.82518       -3.52460       -2.64918
