37
 energy: -59.870050180012 gnorm: 0.000674093694 xtb: 6.7.1 (edcfbbe)
N            0.88678512916196        1.24480905416957        1.14256359454874
C           -0.03810122242139        0.30586336085118        0.47476943058015
C           -0.64376559473898        0.93759072753374       -0.77466023532025
C           -1.38520744317655       -0.10340255077038       -1.62201145809001
C           -0.40931788373611       -1.12328711142543       -2.22268556562594
O            0.08216039787714       -1.99647911110636       -1.49018192347747
O           -0.12241211257294       -0.99831027315637       -3.44961141518854
H            1.69428639943662        1.49462075150740        0.49540559133713
H            0.40150625495535        2.11371611093037        1.38007664626860
H           -0.83614582091125        0.01850040911541        1.16071954997101
H            0.49985626264949       -0.59924061575225        0.18879228775651
H            0.13952073105807        1.38955228762385       -1.38473889978888
H           -1.35321995271060        1.71943340094833       -0.49955844875953
H           -2.10379579010775       -0.64951531658031       -1.00777546116559
H           -1.91007613556145        0.38639848161170       -2.44299176489109
H            1.27607699420177        0.82852221581327        1.99113316376269
O            2.16631720608353       -2.50993309758093       -3.58989888561600
H            2.34001003281584       -2.84807305592756       -2.70565402099814
H            1.31714227247040       -2.01959699933165       -3.51145235759057
O            1.46443715459566        3.07865544121674       -2.47426349069803
H            1.32186763934020        2.46826080857200       -3.22841543614420
H            1.50579131541745        3.96298738278078       -2.84698287727035
O            2.78480608613633       -0.53301771401848       -5.54553847145055
H            2.06947518799719       -0.89817117294318       -6.09118254619238
H            2.88152730777728       -1.18253440848367       -4.83095095257987
O            0.21337667330248       -1.53437233567041       -6.25598013590641
H           -0.47311865285729       -1.10273351481765       -6.77328051430666
H            0.00589180877234       -1.36413674765588       -5.32354017588139
O            0.83422339914501       -4.20974098602913       -5.43539994990692
H            1.40606385783033       -3.80503630025242       -4.76068897487913
H            0.52652610195091       -3.45319663201591       -5.95783549277691
O            1.03632186103413        1.28447170996536       -4.45009868159674
H            0.52345340549919        0.54382362205632       -4.07708112013456
H            1.78569666919134        0.84269645676469       -4.89988740170285
O            2.91489320936948        1.95879103750436       -0.46801388703944
H            2.47678593206987        2.43323799767027       -1.20334924516467
H            3.51411831865539        1.32158068688728       -0.86529947411059
