37
 energy: -59.882245811993 gnorm: 0.000387470431 xtb: 6.7.1 (edcfbbe)
N            0.10302971086312       -0.61574061221781        2.60379569137819
C           -0.38389537960381       -0.32317655807903        1.24611355311166
C            0.58323946039497        0.61360466073078        0.52026382826317
C            0.53063528857921        0.43023993613830       -0.99255555242567
C            1.28960088487409       -0.82437940863055       -1.50511132742169
O            1.97568849995443       -1.48335220770815       -0.69264276227887
O            1.17361056866704       -1.08111188038842       -2.72192974099268
H            1.02084859042247       -1.11115273974936        2.50005453526301
H            0.23780153890294        0.23464069046439        3.14967905100821
H           -1.38036724950788        0.11591795482817        1.28874588814153
H           -0.44482641833390       -1.26239775131933        0.69519598490506
H            1.60643362786872        0.38912822663786        0.82826864079236
H            0.36865694482051        1.65543078603923        0.76186937947679
H           -0.49374520680731        0.35841122217866       -1.36233867294830
H            0.99992380456439        1.27458683837215       -1.50495833185592
H           -0.52420907377643       -1.28616643388845        3.12449448522557
O           -1.61511737227677       -3.26165382758831        0.47175164578196
H           -2.05871171667462       -3.63171885997020       -0.29331533478078
H           -2.31468371033363       -3.03017663349673        1.12369599318149
O            2.24513122091759       -2.19417590707250        1.96673396938222
H            2.27835667663732       -1.97979584656838        1.01772466070555
H            1.68926431621186       -2.99621308516465        2.03372189400947
O            0.65770688794278       -2.03729238106382        6.02029704229782
H            0.52969007166861       -1.41221093602309        6.73784400647305
H            1.40745292436386       -1.69938514492396        5.48989948745842
O            0.31195544923023       -4.15958040704677        2.17642338815288
H           -0.30104047721432       -3.86327874229179        1.47276229866080
H            0.42286715241368       -5.10696392566021        2.06953363656711
O           -1.06962263347795       -2.60210417721432        4.00241623138487
H           -0.57008804167118       -3.26907907725886        3.49439533314362
H           -0.56780897045609       -2.48095450793508        4.83353016170171
O            2.64848666322029       -0.96380180098495        4.44167986381024
H            3.54404110612982       -0.77656529569323        4.73104697798370
H            2.72410979196592       -1.46480156231223        3.61242695127040
O           -3.37173133394520       -2.75138879481806        2.50037355475119
H           -3.93978395557059       -3.46174902804125        2.81060602817423
H           -2.68400764084192       -2.63501178228367        3.18313756023773
