37
 energy: -59.867640914960 gnorm: 0.000138941382 xtb: 6.7.1 (edcfbbe)
N           -0.20412510545317       -0.92409285486945        1.15873301533718
C           -0.12025456054967        0.54434894261508        1.22621734491967
C           -0.70969116671493        1.18836154464524       -0.02733762764812
C            0.21480221722747        1.16413472681227       -1.25078821438856
C            0.26018472676708       -0.14612687717057       -2.06365751059712
O            0.44524078119702       -0.03265842858125       -3.29614312626442
O            0.14047867695897       -1.23987025259049       -1.46994779800906
H            0.46503847440425       -1.38023906173610        1.80306937924536
H           -1.16245523034674       -1.25312993660871        1.40258806345057
H           -0.67110555398776        0.88879586251400        2.10197078366388
H            0.92423631760153        0.84303906794062        1.32505168032774
H           -0.92792889421778        2.23373676391454        0.19382294013564
H           -1.65133190878950        0.69951298402392       -0.28046737865117
H            1.24643745285154        1.37250032904724       -0.95373834664449
H           -0.07705410788498        1.94140541861665       -1.96010326916900
H           -0.00680434287769       -1.21186657760663        0.16458846412973
O            1.59360891619786       -2.15056685631963        2.92928734297926
H            1.69723734395625       -1.84541210066012        3.83572917232505
H            2.46435665093935       -2.38798251359127        2.59920842519722
O            4.42168628544685       -3.83436002643667       -1.35873803039526
H            4.40996527614134       -3.12445550308323       -2.00746649264946
H            3.63056716359276       -4.36096694116877       -1.51288142981777
O           -1.69441828582719       -4.44488999439105        2.66646105104411
H           -1.75567661184614       -4.66376047816209        3.60246785104513
H           -0.76067062393307       -4.48735075486402        2.43225792026063
O           -2.63413517277571       -1.90818845359680        2.00790511327736
H           -2.37400309062762       -2.81622513385316        2.25448578236759
H           -3.44254670911166       -1.98696573957661        1.49615757232295
O           -2.83019211691530       -6.57828177755840        1.07221086172474
H           -2.62746480809318       -6.35216428380074        0.15207313333517
H           -2.52143379878696       -5.82079672362415        1.59732843550503
O           -2.06129297197599       -5.60837398436636       -1.54739427297897
H           -2.52395731383289       -4.91038717488377       -2.02086488814671
H           -1.15434711365483       -5.60743144540217       -1.86871198192121
O            0.69355470353001       -2.29747773587976       -4.82540022135252
H            0.58298056891212       -1.94991808045642       -5.71581558641856
H            0.60801593250366       -1.51980594926332       -4.23167315774140
