37
 energy: -59.880244902532 gnorm: 0.000470037694 xtb: 6.7.1 (edcfbbe)
N           -0.76701854856156       -0.58947854398807        1.96254438554862
C           -0.99267133510335       -0.50780549457448        0.50868638642849
C            0.20115085493712        0.13423956662851       -0.19172721349888
C           -0.05917740137768        0.31836790417505       -1.68593167081265
C            1.24750349425124        0.69484573174316       -2.41835488371451
O            1.33858990929614        1.83093393139876       -2.91982397278580
O            2.14897915979385       -0.18320680362627       -2.45261994465037
H            0.14643540162413       -1.06660699141067        2.15865932348977
H           -0.74566473567997        0.33906638243083        2.38393674574368
H           -1.89307915397976        0.07168228998222        0.30421623507362
H           -1.13326387602492       -1.51555009807995        0.11930666941585
H            1.08304471373318       -0.49968093475233       -0.08526217446804
H            0.42943109943432        1.11158598587128        0.23896901449667
H           -0.78918281828834        1.10673784419214       -1.87367695395194
H           -0.41434806502234       -0.61753694066338       -2.12107898407433
H           -1.50641299443609       -1.17392782177398        2.42097312864366
O            1.45192158867819       -2.07333806882146        2.56490662096692
H            1.27296983009863       -2.75642875387423        1.86733392374167
H            2.37722364676688       -1.83432247864718        2.48755993452335
O           -1.94578035097506       -3.97517034773082        0.99561620472675
H           -2.13815165240583       -3.41353220844033        1.77644808212951
H           -2.03400950000999       -4.88298079895276        1.30122032341926
O           -4.06334514670135       -3.91480810288630       -0.84543391366571
H           -3.67148358746276       -3.98377995540545       -1.71970378171057
H           -3.31480179295293       -3.87385851856109       -0.21867969129734
O            1.44162295487970       -2.71227534481706       -1.88616708947522
H            1.90076613614340       -3.24146512455157       -2.54298144535306
H            1.72139722555046       -1.78180433729391       -2.05469092780552
O           -0.13567439501156       -2.84062524405374        4.69912683909652
H            0.15080061762110       -3.70036020394278        5.01591683790490
H            0.52673684487763       -2.55233861745417        4.04154528079412
O           -2.33334231858015       -2.41812524118125        3.22564764136719
H           -1.60322536444215       -2.62837417124215        3.85408413690089
H           -3.13404213155100       -2.30036659923532        3.74174671389258
O            0.79857184513838       -3.73784858374167        0.62332706701496
H            1.02901983967310       -3.39618716928720       -0.25676736630791
H           -0.17672299389850       -3.81774013741123        0.63825151827675
