37
 energy: -59.858768368636 gnorm: 0.000360461481 xtb: 6.7.1 (edcfbbe)
N            0.39224303111246       -0.67155496459396        2.77482480287166
C            0.52245195427549       -1.15133696153967        1.38688878016674
C            0.36692051719641        0.00965987215419        0.41146874847336
C            0.58959390226888       -0.41353249106741       -1.03408552762325
C            0.68271275931465        0.80288506531898       -1.99517714602293
O            1.23307439345173        1.83982773579122       -1.56764735406902
O            0.21630931355804        0.64746036424197       -3.14646864270589
H            1.10381189464706        0.05931713093590        2.96163657087757
H           -0.54402237994198       -0.24867513369401        2.91613476293524
H           -0.24200578759747       -1.90307546035936        1.18609362126896
H            1.50330473785209       -1.60772385933754        1.25492932972686
H            1.09396874840255        0.79488250580888        0.62599493134177
H           -0.62995436380866        0.44441584567255        0.50043567909651
H           -0.20023174945337       -1.06844706974002       -1.40145593094488
H            1.54295883460135       -0.94024811179568       -1.13512476381735
H            0.52409029596577       -1.44688239631119        3.45409169930715
O            2.36994249138812        1.30877401567355        3.14756992041548
H            3.30090474561350        1.07737328237519        3.21709539427685
H            2.30380142415390        2.09092370025416        2.59407090686588
O            0.77705872884023       -2.71369925620711        4.63605934118654
H            0.62503420585832       -3.63981202020851        4.43075796166532
H            0.46414068906210       -2.55707941877309        5.53219827991286
O            0.42906364480587        1.62517925929901        7.79594177189406
H            1.36023362287237        1.38607100043769        7.74878435142589
H            0.32255436635107        2.43557260597525        7.28814446099787
O           -4.85397769295944       -0.63996308600954       -2.73878781814018
H           -4.31475103014643       -0.95013224854296       -3.47260913897880
H           -4.45185460704251        0.17652911943239       -2.42631548457183
O           -2.12774932584239        0.50719439218752        3.13767929112153
H           -2.20904464987578        1.37484766407961        3.54228819040042
H           -2.89946371704489       -0.00719558599916        3.39123578021553
O           -1.71718290667222       -3.61637310579427        0.59255905123416
H           -1.42865159898422       -4.43523012385587        0.17981385771981
H           -2.64014253374508       -3.48920334367307        0.35464131739460
O            0.17216335886044       -0.55576604535533       -8.19259822967418
H            0.11746555295477       -1.13261279609633       -7.42425964295736
H            0.29539813022124        0.33774091918638       -7.85723512326399
