34
 energy: -56.705369006395 gnorm: 0.002871755887 xtb: 6.7.1 (edcfbbe)
H            0.71411431997917       -1.30403530184130       -0.04874768548442
C           -0.16490540712943       -0.70861708888813       -0.30579452513773
H            0.99625078573641        0.23956195036472       -1.79329493409727
H           -0.84168151248164       -1.31272222201366       -0.91088516526772
N            0.27053765867078        0.47936704102211       -1.06700833984998
H           -1.22195077501193       -1.12057769797492        1.54532728493393
C           -0.85298649672253       -0.26366524558917        0.98476009654339
O            0.76877720329879        1.45340283796003        1.36202731780554
C            0.13926337677940        0.49385943929237        1.88687532399425
H            0.67033522784105        1.12550771461655       -0.34940056168041
O            0.28263629996378        0.11963992356596        3.06548883774991
H           -0.52224286272006        0.93707867958562       -1.51699226579350
H           -1.69112725419256        0.40130809018204        0.76697590701904
O            2.92592982311762       -0.74271699197407        3.11936863505264
H            1.99762638656810       -0.52534566811008        3.31944380278864
H            3.31654246808093        0.11117176166559        2.85343600553090
O           -1.80425216897948       -2.93773827474036       -2.21385694318742
H           -2.55578706102675       -3.37901431578050       -1.80926388676661
H           -1.10484419415217       -3.59455411473924       -2.29482009598563
O            3.49810201545192        2.39169897222657       -3.04529869024272
H            3.02473321052928        3.18038129451259       -3.33153091348247
H            4.07320094229649        2.65209103113278       -2.31994248655038
O            2.44669282846072       -2.33979486112610        0.89691017547128
H            2.69322175317452       -1.78698175068336        1.66253651874947
H            2.56485077418656       -3.24915459761393        1.18488299341333
O            3.29639822687932        1.90258058948723        2.29080414796192
H            3.27273975171254        2.60386827478582        2.94832066572283
H            2.37640995383764        1.81770913234704        1.95496877625101
O           -2.48769278678010       -1.97098128939275       -4.80346176176219
H           -2.27472706568217       -2.24566449726850       -3.89425815171630
H           -1.68378579311055       -1.58270200116302       -5.16045736202614
O            2.16783624355099       -0.04577767841543       -2.92617907709571
H            2.81330090248157       -0.71457873638891       -2.67849837506353
H            2.66313722530039        0.78285660099252       -3.06491626776553
