34
 energy: -56.702390471203 gnorm: 0.000135640221 xtb: 6.7.1 (edcfbbe)
H            0.48302170345270       -0.30560399598318        0.10188978764764
C           -0.48574809395358       -0.55182859790061       -0.33392332284531
H           -0.56174111865998        1.38413039925478       -1.11239621591582
H           -0.31499439176810       -1.17244002187150       -1.21342617766202
N           -1.19168608540441        0.70205655480730       -0.68741716870200
H           -0.82760034901921       -2.25777438792162        0.94463745719672
C           -1.31079123056174       -1.31539999892778        0.69705448085241
O           -1.88997656982484        0.70249232792388        1.84044511682604
C           -1.49050270927319       -0.47779958879707        1.97760862768749
H           -1.56461018986930        1.05198616380585        0.24416539101637
O           -1.23243221163065       -1.01615623862200        3.07803182475802
H           -1.98124990447720        0.51681629292215       -1.30997823192671
H           -2.30753353086872       -1.53423841154928        0.30895168502998
O            1.12581088388692       -2.40282514360049        3.00949283055659
H            1.53079260322624       -2.25000609832250        3.88983928246061
H            0.24908153780996       -1.97243560039339        3.06484587669950
O            1.64845215333554       -2.81608313080151       -1.00331530731102
H            2.02572888045767       -2.14152746959873       -0.41296631606310
H            1.26838277906238       -3.47546646010998       -0.39944069474236
O           -0.54582318527740       -0.39091202168959        5.67104734116941
H           -0.83921016127374       -0.49088016180089        4.74457624099128
H           -1.21701676040573       -0.82784635618555        6.20517850084747
O            2.41541921635073       -0.98374254454544        1.03999734523043
H            3.31151743804276       -0.80869087178175        1.34043053022645
H            1.98081973083829       -1.48397892827021        1.76188062175076
O            0.69448233229661       -4.41701098431761        1.14379502859177
H            0.89013692554967       -3.78831190046512        1.86278906068102
H            1.08638201548590       -5.25498088898107        1.40632625633747
O            1.94010214793898       -1.63579490615995        5.48889644431971
H            1.14637087965378       -1.08648618860185        5.63448637372710
H            2.01923643271098       -2.20019256337600        6.27634206299466
O            2.27831803467559       -3.17669058439604        7.84983795190649
H            2.75775487220104       -4.01096137592330        7.82184874328655
H            2.59313592525536       -2.69085131764814        8.61907157233911
