34
 energy: -56.702706420882 gnorm: 0.000301354018 xtb: 6.7.1 (edcfbbe)
H            2.29291755118210       -1.53836610766226       -0.63922229936268
C            1.22400240926253       -1.34106630735453       -0.72806104395916
H            1.66060443585139        0.07670695193326       -2.21702930878681
H            0.76892364245644       -2.12012852766221       -1.34020517776158
N            1.05182214685156       -0.02166235984392       -1.36768491037607
H            0.76548058210009       -2.29471420511324        1.15704798707652
C            0.59711797223647       -1.34003256149989        0.66127388758678
O            1.55833167436085        0.83102414084616        1.06608481699730
C            1.14376397724014       -0.22959243924639        1.59195686523099
H            1.33547632911166        0.65664304240622       -0.61401683205881
O            1.10930201515388       -0.44694939572270        2.82155244811062
H            0.07582995669493        0.14509021450818       -1.61447098928783
H           -0.48359924742601       -1.18787691556539        0.60597887567051
O           -1.97920612877674       -2.25448238358445        5.76468516903459
H           -2.38280283247843       -3.02263506696087        6.18021923513996
H           -2.68400755138420       -1.84281112525522        5.21925031390179
O            2.31809141601809        2.61748026888837       -4.84102739910768
H            1.51364839245753        2.80202553616335       -5.33686094421802
H            2.61609385970611        3.44520742429059       -4.45252456811242
O            2.61587406075573        0.14316132463326       -3.59142008447520
H            2.53774343128937       -0.50418087160169       -4.29859500277922
H            2.59082311476562        1.01846721347758       -4.01591703503246
O           -3.78196829485510       -1.18600060394544        3.99728812257317
H           -3.70024062554684       -0.23566331450819        3.87912825221745
H           -3.38260253318729       -1.59277599853349        3.19608056368684
O           -2.44876422901727       -2.41695166722323        1.95822134785598
H           -2.75328726088819       -3.30827709801688        1.76012279300053
H           -1.63509565195333       -2.53087061553060        2.50542439492624
O           -1.51743533781384       -0.73719743925183       -6.51344344440172
H           -2.40504149266834       -0.39525663095386       -6.36991563395454
H           -1.60899979728012       -1.63673016632060       -6.84177333875325
O           -0.31059693237263       -2.65409285879901        3.57800449827660
H            0.24023051547364       -1.85917109467819        3.41434548739890
H           -0.74416556734293       -2.50444036255067        4.44132095377113
