37
 energy: -59.876326542595 gnorm: 0.000872203553 xtb: 6.7.1 (edcfbbe)
N            1.19806126631415       -0.08283413498083        2.40316256631830
C            0.39520496114817       -0.38069279736412        1.20889894901897
C            1.13072142684490        0.04907625016876       -0.05624066698031
C            0.32392753663294       -0.25457764441047       -1.31245914539661
C            0.92314357498767        0.39068009147682       -2.58258149740142
O            1.63330919066114        1.40606907963002       -2.46382554272035
O            0.62192398088201       -0.15698451393541       -3.67554841404100
H            2.07671203194014       -0.64067065946448        2.42079557385891
H            1.47102968749346        0.92358601416311        2.42268968330716
H           -0.55378519073034        0.15280430329077        1.26832425786155
H            0.18931383606559       -1.45062047645688        1.16146130971085
H            2.09369503566946       -0.45915862923685       -0.12960347167588
H            1.32836963721661        1.12276539019394       -0.04557384724837
H           -0.68854425242653        0.15129408916514       -1.23094598101614
H            0.23969663219631       -1.32536286786319       -1.50538136427855
H            0.67987380557323       -0.28208032415793        3.28508471081393
O            0.41737129709696        2.38063366626255        5.24106925660443
H           -0.16425761653445        2.87813133862394        4.63849110842903
H            0.48756390720961        2.89282610751066        6.05034449540693
O            1.92446736641499        2.53941493320071        2.84904026931487
H            2.85890088727101        2.75646598383770        2.81481842362307
H            1.67641524964381        2.47515865661649        3.78967919953011
O            3.47721309106309       -1.54207518027880        2.90511398949089
H            3.23477208777224       -1.65098566493798        3.84818328998533
H            3.82878556496558       -2.38358205329221        2.60779815245301
O            1.85943213443989        1.23319810498890       -5.65951166307733
H            2.28691436917737        1.90327586078008       -5.11434709328821
H            1.37471364056276        0.67003078874926       -5.01153138094715
O           -0.65406649518622        3.77337344163660        3.10715513144791
H           -1.33338421280867        3.89162175466450        2.43938840639211
H            0.17964705496737        3.61071914829211        2.64004699668724
O            2.34593901354678       -1.87850294899544        5.38369527929103
H            1.56006288592302       -1.30301461744872        5.33200077621273
H            2.02734172730124       -2.74539702370876        5.64778300485978
O            0.06632892124922       -0.31725607852891        4.91252185533081
H            0.19427233610892        0.62929309198844        5.12221116081526
H           -0.84787637063722       -0.52916348020314        5.12013022135592
