37
 energy: -59.884484671339 gnorm: 0.000346464767 xtb: 6.7.1 (edcfbbe)
N            0.04227467735886       -1.55456064455529        1.04207055668211
C            0.58527137680596       -0.18951144161949        0.97565082828004
C           -0.15855487682407        0.63491201171285       -0.07384692780692
C            0.22817311638716        0.27427959212575       -1.51766816730773
C           -0.59917778644261       -0.83553144469917       -2.18006436783072
O           -1.04452805989223       -0.64934248449872       -3.32101271671357
O           -0.76998348584197       -1.91651698860791       -1.53296932130906
H            0.73209129429126       -2.25351512525953        1.39981671603595
H           -0.81669540310229       -1.61999954105260        1.61290155066183
H            0.50071977246825        0.28759791607743        1.95158152831500
H            1.63818837411158       -0.24650280679631        0.69629499739688
H            0.08325036526796        1.68657103701308        0.07928109481777
H           -1.23690219073683        0.52174251021618        0.05569007545561
H            1.27059251556593       -0.05398532969930       -1.54722629600438
H            0.13340069684551        1.14482923400387       -2.16917983926933
H           -0.22154799374370       -1.82966756778367        0.06788413345063
O            3.81471297046911       -4.18184502726073        3.26396114119491
H            3.01740770804250       -4.09702985892643        2.70762618382042
H            3.86890523943669       -3.36021142938004        3.76139025245510
O           -2.41897331921660       -2.25851828818245        2.18807537269434
H           -3.09123988031048       -1.83161487201120        2.72510497790967
H           -2.79134007367445       -2.35571136812324        1.28849485554693
O            1.50849889787307       -3.76041949451556        1.71263164621115
H            0.71924004489498       -4.17701869511962        2.11598596178681
H            1.50636043984853       -4.02314070582291        0.77848136246349
O            1.25823687350112       -3.78271930710134       -1.11758816803979
H            1.35407507423277       -4.43354558765304       -1.81793838188093
H            0.49708179870009       -3.22334937166237       -1.35626504949725
O           -0.92364616068789       -4.57950594885909        2.64056257806438
H           -1.48323825575884       -3.78404181765243        2.57295367065131
H           -1.44229104359588       -5.31345192964677        2.30253392335255
O            2.98463082414060       -1.53785279355840       -0.80369239236242
H            2.46734953527746       -2.35750125366713       -0.88990492298868
H            3.90680870912476       -1.80384402680501       -0.75994234755667
O           -3.20104643312236       -2.47674362540669       -0.41191366128511
H           -3.64017395828211       -3.20219581926370       -0.86401684763705
H           -2.38623038336956       -2.29216270599013       -0.91728899976105
