34
 energy: -56.704159118393 gnorm: 0.000133447347 xtb: 6.7.1 (edcfbbe)
C           -0.46873127554011       -0.25509000181008        0.40148426532563
C           -1.03203034042910        0.31018823819837        1.73014939014473
O           -1.26869641964166       -0.50755221134085        2.63635814971228
O           -1.22060418496672        1.54931713867908        1.80871716556019
C           -0.12986123099917        0.83198846119314       -0.60229952606267
N            0.32740055377704        0.28148170648879       -1.89638151534775
H            0.40128877025717       -0.85467899062972        0.67429306285964
H           -1.23941273561194       -0.93078168507562        0.02477738021038
H           -1.01404686911997        1.44429644679384       -0.78089164390943
H            0.65744077324373        1.46773452001776       -0.19840244295598
H           -0.39700601265846       -0.31324711892254       -2.30405361622356
H            1.18486273271354       -0.26071042865059       -1.77320652442366
H            0.51542975484344        1.09536651577251       -2.55531558464788
O            2.27428352005181        3.26305939994305        5.85002745908612
H            1.79551658672672        2.45963460289456        5.62417763837493
H            1.62291863263302        3.96999620867069        5.90145756868315
O            2.85058153781085        3.63617830640195       -2.26963616547839
H            2.93533843367778        4.58989535820323       -2.35459964609579
H            2.65168984559091        3.46318662656950       -1.32749384171736
O           -0.61350136544732        3.90525446803767        0.56841940140724
H           -0.84207536130419        3.03051884441541        0.94473379681247
H           -0.97808637817240        4.53520369228388        1.19977510089740
O           -2.17222337555832        3.78300374147673        3.16207194241325
H           -3.12445941253001        3.69003791197190        3.25375817956488
H           -1.84994787714756        2.91535136912238        2.85761023014913
O            0.76963180091181        2.43179112910997       -3.44218442774127
H            1.55609071429725        2.87621002159098       -3.04706911756763
H            0.94101685487225        2.34793317644653       -4.38427216554712
O           -1.59400694081458        3.35416399578173       -2.06911335718765
H           -1.26685321754786        3.70167336057915       -1.22394749404689
H           -0.80256155222153        3.19540771100772       -2.60995390845117
O            2.04010310223362        3.27241488021904        0.31171274708329
H            2.47936650330336        3.47674092703929        1.14035259396844
H            1.12385843275803        3.60869067747568        0.38710190518952
