37
 energy: -59.875317798693 gnorm: 0.000300865047 xtb: 6.7.1 (edcfbbe)
N           -0.28559581487755       -0.92932877684490        1.34002681537425
C            0.40259945563373        0.36521959968761        1.20292917347879
C            0.06159698209369        1.00182998611884       -0.14145393071564
C            0.78537042443480        0.37795812525420       -1.34327142430880
C            0.12984260492634       -0.86831962142639       -1.95582009127937
O            0.05901438756193       -0.93169834537988       -3.20063241927449
O           -0.28011367481627       -1.77767215111133       -1.18973352801252
H            0.07494901689654       -1.48883037641907        2.11034320245105
H           -1.32828445616629       -0.78041046199803        1.45663011661112
H            0.08041738252599        1.02774576333837        2.00681276241015
H            1.48181988187061        0.21933389390476        1.27363734897153
H            0.34352058335051        2.05414130808324       -0.10877809059073
H           -1.01701278797994        0.95374644698064       -0.29886457116439
H            1.80423869189335        0.09373032680709       -1.06623622520722
H            0.85829903860746        1.11072975067633       -2.14835201793788
H           -0.19110170374215       -1.44269798059135        0.42424171365877
O           -4.01025613180215       -1.61795280486123        3.81900337724947
H           -4.78304436913043       -1.27399749669666        4.27539064697604
H           -3.87760634220728       -2.52442143479175        4.11343951763393
O            0.77407380698948        3.19502307691227       -3.50011603142848
H           -0.08939544080305        3.45153409425430       -3.83948336260969
H            1.39741264948596        3.28295471801491       -4.22820865101783
O           -2.95999118622486       -0.67271782202177        1.37889960565129
H           -3.37687864369599       -0.96612741375547        2.20622072144458
H           -3.10509176634474       -1.38525658232850        0.72614122606793
O           -2.80627957094382       -2.70586741683239       -0.49855546485558
H           -1.91172609698459       -2.47427076913594       -0.80699956367891
H           -3.36442259437682       -2.64777731475735       -1.29769209559400
O           -1.69629951950972       -2.65876749440651       -4.31741375717627
H           -1.05795183540426       -2.00989410421532       -3.94262702535101
H           -1.21394693250918       -3.48900244835378       -4.38561916404620
O           -2.79198026828371       -5.35800408455385        0.41673303073642
H           -2.72779579348609       -4.43748785942095        0.09616021837708
H           -3.73218809548152       -5.53124663375197        0.52175479508599
O           -4.07993181997858       -2.63194634600444       -2.94125558552781
H           -3.27120097084053       -2.56329937140583       -3.48587203366954
H           -4.60752609067012       -3.33523897899766       -3.33266223874167
