! Opt B3LYP D4 def2-TZVP TightSCF TightOpt CPCM(water)

%maxcore 5000

%pal
nprocs 10
end

%geom
    MaxIter 500
end

* xyz 0 1
N          1.68056       -0.27773        0.82385
C          2.13752       -0.27109       -0.56509
C          1.32682        0.73371       -1.40308
C          1.73914        0.74616       -2.88464
C          3.12102        1.29025       -3.14793
O          3.89611        1.76084       -2.15098
O          3.53745        1.33058       -4.29397
H          1.81441        0.66860        1.24866
H          0.67107       -0.54749        0.86983
H          2.01393       -1.29038       -0.99408
H          3.21783       -0.01908       -0.58420
H          1.41749        1.75821       -0.98033
H          0.25727        0.43372       -1.35154
H          1.66425       -0.28702       -3.28832
H          1.02098        1.38689       -3.44055
H          2.24086       -0.97414        1.36636
O         -0.37265        1.46057        3.07826
H         -0.68599        1.40757        2.14035
O          7.08803        2.20969       -3.02180
H          6.87489        1.25573       -2.86326
H         -0.05347        0.54637        3.28573
H          6.46624        2.48661       -3.74101
O          4.64503       -1.97904       -2.29324
H          4.92831       -1.03713       -2.40638
H          4.16398       -2.19547       -3.13117
*
