! Opt B3LYP D4 def2-TZVP TightSCF TightOpt CPCM(water)

%maxcore 5000

%pal
nprocs 10
end

%geom
	MaxIter 1000
end

* xyz 0 1
  N           1.28796856212326     -0.84722755630792     -0.18127554530095
  C           2.66664198728189     -0.79778988394859     -0.75963075615379
  C           2.74799035633889      0.14366663668218     -1.94809091937308
  C           4.09128759862615     -0.00821927318606     -2.66045917049258
  C           4.26433740742520      1.01563589441627     -3.77125995011380
  O           3.34180813119318      1.15800792614415     -4.60996117912500
  O           5.34143469114639      1.69203821183295     -3.79891531781027
  H           0.87828953913438      0.09070071433937     -0.04159815570221
  H           0.65471412556369     -1.35494366998471     -0.79734162798243
  H           2.91298904203218     -1.81714879586440     -1.05067936859466
  H           3.33325661188579     -0.47601840353752      0.04153027404979
  H           2.62314213681661      1.17374715480840     -1.60464981309911
  H           1.93651090150156     -0.06360283861333     -2.64770792189086
  H           4.15124906873429     -1.00214745794952     -3.11399435184519
  H           4.91372962956579      0.09766193799032     -1.95514695285335
  H           1.32081519524961     -1.33027572999771      0.73692425294737
  O           2.53896926109566      3.87451518910076     -4.20482934669134
  H           3.03603340542672      3.98214643528871     -3.37119624915378
  H           2.66427654957449      2.92862575055166     -4.41684947779773
  O           5.11783934112877      3.89530294580502     -5.60197812989931
  H           5.31065414014472      3.08588644268360     -5.08715611443031
  H           4.23571000724756      4.14190084205539     -5.26925861661928
  O           7.20405279154143     -0.59713039026117     -0.17007010282685
  H           8.12491659697191     -0.70920712614914      0.10581912513363
  H           7.24226970676390      0.03333220424794     -0.93206479271486
  O           5.69185012220690      0.41436829326080      1.84800426121424
  H           6.27654672798906      0.05228068563090      1.13550046336067
  H           6.13975324080398      1.18624263040322      2.21271428038182
  O          -0.88050141893463     -0.49610480923997      3.02524946931351
  H          -0.08526097604931     -1.02776886399300      2.83395815918544
  H          -0.74527459879834      0.34235645362350      2.57048557008809
  O           7.49388184648577      1.16660202449333     -2.26616940573374
  H           6.70065388003605      1.32726466272898     -2.83748246160739
  H           8.17334621512040      0.82248992178672     -2.85817692459397
  O           4.38185013628027      2.74453688433987      0.36955414428644
  H           4.98676046444304      1.98903880340579      0.35743562375652
  H           3.56764063768059      2.36478557913385      0.77139314052005
  O           2.33879872655503     -3.55220616489909     -2.75349085951207
  H           3.15333837059645     -3.35778766685398     -3.23261426765618
  H           1.62991041805814     -3.38569866364965     -3.38601029836281
  O           4.49235862750427      3.91315749728616     -2.13981431361564
  H           4.92048546202140      3.21031009401371     -2.65429060641063
  H           4.36878020145407      3.51692068764175     -1.24969550089612
  O          -0.06785182827249      1.73755942121627     -0.02437387924649
  H           0.12197248439627      2.08975425904000     -0.90353817009503
  H          -1.02863690478666      1.67360584381259      0.03582540604148
  O           1.55043543903834     -0.80629127241067     -5.27706407898718
  H           2.04652785548020     -1.63204794770208     -5.26347341318010
  H           2.20017547067911     -0.11954027496376     -5.00513401434063
  O           2.20636946178726      1.73209925758328      1.60631171690614
  H           1.26319554898112      1.83560437704941      1.40999579342612
  H           2.32582526232088      1.08238698580297      2.31735705941000
  H           4.26755560749433     -0.10672491007888      2.74847709239115
  O           3.42298296566301     -0.29295139841755      3.22531513626210
  H           3.59345489306013     -0.13749140600382      4.16385900527391
  O           1.46035161611503     -1.96872933198544      2.39658921593540
  H           2.25462681088839     -1.51784692098419      2.76467936886643
  H           1.57997356314008     -2.91854391967459      2.51735009132619
*
