58
Coordinates from ORCA-job 00_Aminobutyric-acid_zwitterion E -1433.303796749462
  N       1.287969     -0.847228     -0.181276
  C       2.666642     -0.797790     -0.759631
  C       2.747990      0.143667     -1.948091
  C       4.091288     -0.008219     -2.660459
  C       4.264337      1.015636     -3.771260
  O       3.341808      1.158008     -4.609961
  O       5.341435      1.692038     -3.798915
  H       0.878290      0.090701     -0.041598
  H       0.654714     -1.354944     -0.797342
  H       2.912989     -1.817149     -1.050679
  H       3.333257     -0.476018      0.041530
  H       2.623142      1.173747     -1.604650
  H       1.936511     -0.063603     -2.647708
  H       4.151249     -1.002147     -3.113994
  H       4.913730      0.097662     -1.955147
  H       1.320815     -1.330276      0.736924
  O       2.538969      3.874515     -4.204829
  H       3.036033      3.982146     -3.371196
  H       2.664277      2.928626     -4.416849
  O       5.117839      3.895303     -5.601978
  H       5.310654      3.085886     -5.087156
  H       4.235710      4.141901     -5.269259
  O       7.204053     -0.597130     -0.170070
  H       8.124917     -0.709207      0.105819
  H       7.242270      0.033332     -0.932065
  O       5.691850      0.414368      1.848004
  H       6.276547      0.052281      1.135500
  H       6.139753      1.186243      2.212714
  O      -0.880501     -0.496105      3.025249
  H      -0.085261     -1.027769      2.833958
  H      -0.745275      0.342356      2.570486
  O       7.493882      1.166602     -2.266169
  H       6.700654      1.327265     -2.837482
  H       8.173346      0.822490     -2.858177
  O       4.381850      2.744537      0.369554
  H       4.986760      1.989039      0.357436
  H       3.567641      2.364786      0.771393
  O       2.338799     -3.552206     -2.753491
  H       3.153338     -3.357788     -3.232614
  H       1.629910     -3.385699     -3.386010
  O       4.492359      3.913157     -2.139814
  H       4.920485      3.210310     -2.654291
  H       4.368780      3.516921     -1.249696
  O      -0.067852      1.737559     -0.024374
  H       0.121972      2.089754     -0.903538
  H      -1.028637      1.673606      0.035825
  O       1.550435     -0.806291     -5.277064
  H       2.046528     -1.632048     -5.263473
  H       2.200175     -0.119540     -5.005134
  O       2.206369      1.732099      1.606312
  H       1.263196      1.835604      1.409996
  H       2.325825      1.082387      2.317357
  H       4.267556     -0.106725      2.748477
  O       3.422983     -0.292951      3.225315
  H       3.593455     -0.137491      4.163859
  O       1.460352     -1.968729      2.396589
  H       2.254627     -1.517847      2.764679
  H       1.579974     -2.918544      2.517350
58
Coordinates from ORCA-job 00_Aminobutyric-acid_zwitterion E -1433.304302723720
  N       1.289029     -0.864313     -0.183854
  C       2.666936     -0.799173     -0.762373
  C       2.736731      0.135562     -1.956010
  C       4.087032     -0.001526     -2.662409
  C       4.264675      1.023064     -3.774166
  O       3.340605      1.168211     -4.611917
  O       5.341949      1.698278     -3.797431
  H       0.867773      0.068058     -0.042921
  H       0.662883     -1.382653     -0.799056
  H       2.923415     -1.816442     -1.050970
  H       3.329358     -0.468764      0.035201
  H       2.593354      1.165873     -1.620452
  H       1.932053     -0.093712     -2.656132
  H       4.156578     -0.995417     -3.114099
  H       4.904187      0.101225     -1.950124
  H       1.323636     -1.342420      0.737526
  O       2.547974      3.890449     -4.205122
  H       3.045990      3.996374     -3.369361
  H       2.667866      2.944559     -4.418382
  O       5.133609      3.900830     -5.602532
  H       5.320803      3.091138     -5.086410
  H       4.253420      4.151437     -5.272201
  O       7.175529     -0.613277     -0.181180
  H       8.090546     -0.750917      0.094645
  H       7.228870      0.021873     -0.935541
  O       5.688068      0.408195      1.842598
  H       6.263953      0.041379      1.127448
  H       6.149527      1.172108      2.208482
  O      -0.865955     -0.470705      3.018099
  H      -0.074043     -1.010049      2.837009
  H      -0.724019      0.354538      2.540089
  O       7.489552      1.156104     -2.255347
  H       6.698248      1.323966     -2.829133
  H       8.169987      0.811153     -2.846481
  O       4.384892      2.755249      0.368315
  H       4.986134      1.996644      0.354778
  H       3.567844      2.382326      0.770901
  O       2.357921     -3.553414     -2.754546
  H       3.171543     -3.354013     -3.234659
  H       1.647340     -3.389531     -3.386893
  O       4.499988      3.921902     -2.135352
  H       4.927304      3.216453     -2.651518
  H       4.374098      3.525864     -1.245360
  O      -0.100457      1.718028     -0.015438
  H       0.076376      2.079734     -0.894481
  H      -1.061288      1.643414      0.052926
  O       1.550738     -0.804800     -5.277893
  H       2.050630     -1.629375     -5.266435
  H       2.198657     -0.114799     -5.007050
  O       2.206336      1.733292      1.615428
  H       1.261388      1.826508      1.422155
  H       2.333894      1.081258      2.324446
  H       4.270893     -0.097023      2.743465
  O       3.429332     -0.277490      3.222073
  H       3.604346     -0.119150      4.157675
  O       1.469989     -1.957731      2.410669
  H       2.263275     -1.501632      2.774083
  H       1.591468     -2.905634      2.544104
58
Coordinates from ORCA-job 00_Aminobutyric-acid_zwitterion E -1433.304844081548
  N       1.293159     -0.894312     -0.187991
  C       2.670404     -0.795960     -0.762172
  C       2.715520      0.122857     -1.968249
  C       4.078566      0.017216     -2.660193
  C       4.262104      1.041005     -3.773735
  O       3.334523      1.189058     -4.608375
  O       5.338714      1.714653     -3.792470
  H       0.849375      0.025788     -0.043894
  H       0.683495     -1.430950     -0.804306
  H       2.951252     -1.809116     -1.042319
  H       3.322363     -0.442802      0.031535
  H       2.531902      1.152728     -1.651532
  H       1.926779     -0.152770     -2.669207
  H       4.171340     -0.977319     -3.106721
  H       4.883407      0.119691     -1.933473
  H       1.327384     -1.366220      0.736542
  O       2.565117      3.922150     -4.203372
  H       3.065946      4.024339     -3.367187
  H       2.672469      2.975975     -4.417454
  O       5.160830      3.905932     -5.605072
  H       5.336730      3.097256     -5.083944
  H       4.283679      4.166202     -5.278674
  O       7.114195     -0.653388     -0.212905
  H       8.017294     -0.850302      0.061204
  H       7.200385     -0.003805     -0.951068
  O       5.680160      0.387972      1.830873
  H       6.237751      0.010544      1.107497
  H       6.171512      1.131015      2.201676
  O      -0.838810     -0.410031      2.996445
  H      -0.056692     -0.968668      2.831542
  H      -0.675555      0.391910      2.485341
  O       7.474305      1.141853     -2.240766
  H       6.687089      1.323612     -2.816260
  H       8.156977      0.800798     -2.832260
  O       4.389241      2.773921      0.364556
  H       4.983665      2.009360      0.350436
  H       3.565661      2.417720      0.765709
  O       2.410481     -3.552176     -2.746208
  H       3.220449     -3.340550     -3.228234
  H       1.697254     -3.395915     -3.378220
  O       4.514962      3.938543     -2.131672
  H       4.938795      3.229483     -2.648984
  H       4.385410      3.542447     -1.241510
  O      -0.153845      1.671343      0.007389
  H      -0.004777      2.054165     -0.868034
  H      -1.112389      1.576476      0.091970
  O       1.557031     -0.806102     -5.268432
  H       2.066678     -1.625385     -5.260499
  H       2.197724     -0.107979     -5.000658
  O       2.205638      1.733198      1.623144
  H       1.259005      1.802102      1.433530
  H       2.348924      1.075724      2.326733
  H       4.275416     -0.085795      2.730235
  O       3.433822     -0.252101      3.212217
  H       3.614067     -0.088110      4.145069
  O       1.480647     -1.935430      2.428881
  H       2.272702     -1.471212      2.785759
  H       1.602533     -2.879551      2.586654
58
Coordinates from ORCA-job 00_Aminobutyric-acid_zwitterion E -1433.305137434776
  N       1.293795     -0.906177     -0.191624
  C       2.671873     -0.790408     -0.759828
  C       2.705793      0.119319     -1.973236
  C       4.074617      0.030032     -2.656262
  C       4.258989      1.052060     -3.770697
  O       3.329733      1.200716     -4.603461
  O       5.335976      1.724233     -3.790706
  H       0.839471      0.008770     -0.048588
  H       0.693384     -1.450721     -0.810014
  H       2.968069     -1.801405     -1.032285
  H       3.315702     -0.422364      0.034023
  H       2.501571      1.148494     -1.667007
  H       1.925751     -0.178345     -2.674843
  H       4.182187     -0.964902     -3.099377
  H       4.872065      0.137772     -1.922026
  H       1.327749     -1.379129      0.733182
  O       2.577242      3.942232     -4.204887
  H       3.080910      4.042356     -3.370434
  H       2.675574      2.995003     -4.417614
  O       5.176655      3.903509     -5.612717
  H       5.345660      3.096315     -5.086604
  H       4.301167      4.171661     -5.288084
  O       7.076558     -0.679021     -0.233882
  H       7.971287     -0.914856      0.037393
  H       7.184646     -0.020851     -0.962532
  O       5.677276      0.376786      1.824246
  H       6.223272     -0.008296      1.095271
  H       6.187708      1.104549      2.199292
  O      -0.845996     -0.416786      3.012739
  H      -0.061280     -0.968068      2.832688
  H      -0.678133      0.403351      2.533955
  O       7.465488      1.134485     -2.236242
  H       6.680288      1.323990     -2.811832
  H       8.149500      0.797298     -2.828300
  O       4.394574      2.787587      0.359552
  H       4.984615      2.019623      0.348484
  H       3.565718      2.443365      0.757874
  O       2.445422     -3.550121     -2.736954
  H       3.252927     -3.330842     -3.219610
  H       1.731564     -3.399072     -3.369545
  O       4.527912      3.949642     -2.135659
  H       4.948030      3.237997     -2.652103
  H       4.397017      3.554276     -1.245124
  O      -0.175437      1.650770      0.011710
  H      -0.041105      2.045245     -0.860830
  H      -1.132265      1.547204      0.104790
  O       1.564239     -0.809337     -5.260281
  H       2.080530     -1.624290     -5.253109
  H       2.198907     -0.105653     -4.993902
  O       2.207456      1.742008      1.615159
  H       1.260714      1.795681      1.423297
  H       2.357265      1.081367      2.315619
  H       4.276464     -0.079988      2.723183
  O       3.432152     -0.236704      3.206637
  H       3.612507     -0.069226      4.139091
  O       1.483509     -1.933702      2.433695
  H       2.273732     -1.460869      2.786954
  H       1.611769     -2.875475      2.600255
58
Coordinates from ORCA-job 00_Aminobutyric-acid_zwitterion E -1433.305760397480
  N       1.302386     -0.952460     -0.194029
  C       2.688448     -0.756549     -0.719844
  C       2.680265      0.112002     -1.966066
  C       4.064368      0.096396     -2.615692
  C       4.228930      1.108185     -3.735091
  O       3.287182      1.255442     -4.552933
  O       5.309039      1.774602     -3.780962
  H       0.803216     -0.060452     -0.053682
  H       0.748142     -1.521225     -0.833527
  H       3.064484     -1.754499     -0.943030
  H       3.280349     -0.312084      0.081516
  H       2.393529      1.134384     -1.702393
  H       1.933861     -0.265754     -2.667318
  H       4.249025     -0.896963     -3.042846
  H       4.830145      0.254831     -1.856544
  H       1.326207     -1.441792      0.721585
  O       2.624806      4.043998     -4.199762
  H       3.149308      4.131632     -3.381196
  H       2.673877      3.090405     -4.400584
  O       5.226505      3.879047     -5.657156
  H       5.365530      3.082624     -5.102753
  H       4.360922      4.190757     -5.337414
  O       6.862535     -0.806264     -0.362239
  H       7.696183     -1.243211     -0.119601
  H       7.088241     -0.116923     -1.042865
  O       5.653202      0.319222      1.772567
  H       6.136042     -0.104050      1.014175
  H       6.260342      0.952579      2.175191
  O      -0.871663     -0.427518      3.013164
  H      -0.082602     -0.967891      2.816850
  H      -0.705391      0.412939      2.570976
  O       7.412192      1.097436     -2.233553
  H       6.634620      1.328887     -2.803280
  H       8.100440      0.786189     -2.831964
  O       4.428963      2.847836      0.341633
  H       4.993250      2.060805      0.355170
  H       3.569242      2.569396      0.720263
  O       2.644225     -3.540708     -2.658871
  H       3.435451     -3.279612     -3.145867
  H       1.928588     -3.418904     -3.295302
  O       4.591915      4.002631     -2.157837
  H       4.988970      3.279099     -2.670119
  H       4.460430      3.610060     -1.265721
  O      -0.233871      1.548845      0.063006
  H      -0.177210      2.012634     -0.784476
  H      -1.178710      1.407419      0.205188
  O       1.608182     -0.842743     -5.193469
  H       2.163686     -1.629397     -5.185450
  H       2.204624     -0.106785     -4.933396
  O       2.226393      1.792155      1.559673
  H       1.281873      1.764714      1.346521
  H       2.409797      1.112238      2.235377
  H       4.264459     -0.066887      2.674919
  O       3.403140     -0.169329      3.162099
  H       3.581269      0.007439      4.095401
  O       1.479915     -1.924843      2.435635
  H       2.257574     -1.414518      2.771255
  H       1.635944     -2.854380      2.643554
58
Coordinates from ORCA-job 00_Aminobutyric-acid_zwitterion E -1433.306091825596
  N       1.303833     -0.945274     -0.198294
  C       2.689196     -0.768402     -0.732527
  C       2.691518      0.107417     -1.972812
  C       4.070961      0.077950     -2.632360
  C       4.230041      1.093746     -3.750609
  O       3.289434      1.243619     -4.566279
  O       5.310055      1.760708     -3.793486
  H       0.814436     -0.047011     -0.059257
  H       0.740707     -1.506811     -0.836076
  H       3.052832     -1.768376     -0.962181
  H       3.288447     -0.335822      0.066518
  H       2.425208      1.131282     -1.697332
  H       1.934979     -0.248324     -2.673530
  H       4.243284     -0.913222     -3.063560
  H       4.844860      0.234859     -1.882536
  H       1.327573     -1.431630      0.721258
  O       2.618956      4.028457     -4.198030
  H       3.143797      4.116614     -3.376356
  H       2.673868      3.075130     -4.402572
  O       5.213952      3.882734     -5.655242
  H       5.357170      3.083821     -5.107701
  H       4.349854      4.188356     -5.332610
  O       6.860911     -0.776898     -0.341183
  H       7.699312     -1.209231     -0.131004
  H       7.089451     -0.092648     -1.021107
  O       5.658248      0.335948      1.793700
  H       6.147650     -0.082146      1.043656
  H       6.255179      0.972675      2.199831
  O      -0.866497     -0.439169      3.038759
  H      -0.077353     -0.972396      2.826327
  H      -0.698719      0.419121      2.633227
  O       7.398124      1.125540     -2.224058
  H       6.635944      1.314975     -2.820783
  H       8.117505      0.821345     -2.797352
  O       4.430988      2.842731      0.357197
  H       4.997212      2.059073      0.375914
  H       3.574016      2.552422      0.734375
  O       2.613653     -3.551387     -2.680725
  H       3.407886     -3.296621     -3.167607
  H       1.897431     -3.424153     -3.316013
  O       4.588707      3.991658     -2.150308
  H       4.986587      3.268236     -2.668716
  H       4.459552      3.601052     -1.255934
  O      -0.210714      1.566198      0.044099
  H      -0.137354      2.020858     -0.805938
  H      -1.158319      1.432237      0.177425
  O       1.598546     -0.840994     -5.215110
  H       2.149549     -1.632488     -5.207202
  H       2.200544     -0.109168     -4.952830
  O       2.220925      1.793308      1.563675
  H       1.278271      1.774369      1.344183
  H       2.396436      1.116550      2.242080
  H       4.260080     -0.062878      2.692829
  O       3.402507     -0.175760      3.175752
  H       3.579272     -0.001914      4.108887
  O       1.480593     -1.927948      2.439479
  H       2.258008     -1.421939      2.778494
  H       1.633674     -2.859289      2.640444
58
Coordinates from ORCA-job 00_Aminobutyric-acid_zwitterion E -1433.306389634114
  N       1.294116     -0.945815     -0.198619
  C       2.679997     -0.773979     -0.732398
  C       2.690921      0.107076     -1.968220
  C       4.070650      0.075084     -2.627050
  C       4.230633      1.093030     -3.746658
  O       3.290361      1.243650     -4.564924
  O       5.313643      1.759268     -3.792867
  H       0.808366     -0.046114     -0.059578
  H       0.727689     -1.502149     -0.837990
  H       3.041828     -1.773191     -0.962610
  H       3.277831     -0.345881      0.067618
  H       2.432060      1.130855     -1.687107
  H       1.933511     -0.238656     -2.672166
  H       4.241677     -0.915529     -3.060502
  H       4.844845      0.235315     -1.879438
  H       1.319777     -1.432918      0.719580
  O       2.619084      4.025444     -4.204121
  H       3.143287      4.115564     -3.382103
  H       2.675840      3.073177     -4.405540
  O       5.212004      3.880123     -5.658796
  H       5.357255      3.082208     -5.110249
  H       4.347669      4.185750     -5.337527
  O       6.886849     -0.775323     -0.339375
  H       7.722174     -1.197847     -0.112877
  H       7.110217     -0.093518     -1.018946
  O       5.655409      0.343983      1.786977
  H       6.149862     -0.073536      1.037227
  H       6.250952      0.981950      2.195905
  O      -0.861608     -0.444863      3.057393
  H      -0.074687     -0.977554      2.837015
  H      -0.694544      0.418435      2.662172
  O       7.423850      1.121053     -2.223325
  H       6.650980      1.319628     -2.814987
  H       8.133855      0.819469     -2.802317
  O       4.426235      2.848504      0.355704
  H       4.992258      2.064505      0.378797
  H       3.570645      2.550792      0.733326
  O       2.602127     -3.554408     -2.686775
  H       3.399077     -3.300919     -3.170312
  H       1.887713     -3.424840     -3.323801
  O       4.586014      3.995233     -2.153982
  H       4.985736      3.271924     -2.669838
  H       4.456256      3.606109     -1.260636
  O      -0.208337      1.568168      0.044620
  H      -0.133000      2.023817     -0.804182
  H      -1.156105      1.436029      0.181227
  O       1.600451     -0.836915     -5.224305
  H       2.150686     -1.628851     -5.213915
  H       2.202470     -0.106241     -4.957611
  O       2.213092      1.796570      1.559188
  H       1.271303      1.776393      1.336058
  H       2.390695      1.117600      2.236242
  H       4.255093     -0.066172      2.690818
  O       3.400148     -0.181800      3.172623
  H       3.579184     -0.010335      4.104934
  O       1.478118     -1.933729      2.440499
  H       2.255679     -1.429050      2.777627
  H       1.630873     -2.865485      2.638983
58
Coordinates from ORCA-job 00_Aminobutyric-acid_zwitterion E -1433.306661214958
  N       1.287978     -0.956705     -0.200705
  C       2.674664     -0.781543     -0.730823
  C       2.690327      0.101026     -1.965128
  C       4.072366      0.074530     -2.620038
  C       4.230606      1.093668     -3.741392
  O       3.287600      1.246403     -4.557258
  O       5.315759      1.757989     -3.792490
  H       0.800897     -0.057870     -0.059683
  H       0.723359     -1.510149     -0.844551
  H       3.041769     -1.779359     -0.957939
  H       3.267787     -0.351638      0.071309
  H       2.430217      1.124231     -1.682306
  H       1.936469     -0.243781     -2.673322
  H       4.249141     -0.914755     -3.054533
  H       4.845165      0.240905     -1.872305
  H       1.313214     -1.443649      0.715620
  O       2.624917      4.028517     -4.201808
  H       3.151591      4.118518     -3.381393
  H       2.679120      3.076265     -4.400726
  O       5.211408      3.874756     -5.663069
  H       5.356658      3.078210     -5.112396
  H       4.348405      4.183940     -5.341806
  O       6.876056     -0.777393     -0.351462
  H       7.700411     -1.220337     -0.123675
  H       7.110231     -0.095827     -1.025786
  O       5.650316      0.355092      1.774278
  H       6.141532     -0.065968      1.024177
  H       6.255876      0.979753      2.190440
  O      -0.856554     -0.435595      3.059162
  H      -0.072858     -0.973160      2.839397
  H      -0.686969      0.425415      2.659367
  O       7.431452      1.124672     -2.225033
  H       6.656826      1.322516     -2.817671
  H       8.142990      0.832008     -2.803201
  O       4.430576      2.858667      0.361340
  H       4.993744      2.071458      0.393654
  H       3.574513      2.558927      0.737631
  O       2.607431     -3.559331     -2.689531
  H       3.405567     -3.304117     -3.169745
  H       1.894382     -3.428708     -3.327781
  O       4.592320      3.999317     -2.153118
  H       4.990900      3.275335     -2.668508
  H       4.463192      3.612819     -1.259511
  O      -0.210490      1.558430      0.058205
  H      -0.143762      2.023592     -0.786496
  H      -1.156162      1.424357      0.207873
  O       1.605928     -0.836160     -5.228285
  H       2.158801     -1.626115     -5.215729
  H       2.204511     -0.104273     -4.956800
  O       2.209740      1.805948      1.556044
  H       1.269418      1.775617      1.324973
  H       2.392901      1.122941      2.227981
  H       4.247541     -0.060747      2.683254
  O       3.393956     -0.175080      3.164225
  H       3.575861     -0.006478      4.096234
  O       1.474456     -1.934295      2.440608
  H       2.250867     -1.426902      2.774956
  H       1.627845     -2.864799      2.644158
58
Coordinates from ORCA-job 00_Aminobutyric-acid_zwitterion E -1433.307170035485
  N       1.275913     -0.979944     -0.209148
  C       2.664863     -0.798154     -0.730422
  C       2.688908      0.088548     -1.961002
  C       4.074952      0.071966     -2.607097
  C       4.229198      1.092767     -3.729336
  O       3.280839      1.250990     -4.538541
  O       5.317978      1.751339     -3.789480
  H       0.786559     -0.082198     -0.066591
  H       0.715493     -1.528495     -0.861037
  H       3.041777     -1.793858     -0.951898
  H       3.249639     -0.365153      0.077330
  H       2.425706      1.110463     -1.674753
  H       1.942187     -0.254170     -2.678109
  H       4.263301     -0.914696     -3.043822
  H       4.844862      0.249359     -1.858787
  H       1.300012     -1.467080      0.705292
  O       2.635604      4.032620     -4.189507
  H       3.167848      4.121573     -3.372976
  H       2.684843      3.079351     -4.384916
  O       5.206273      3.863445     -5.667228
  H       5.351680      3.069087     -5.113182
  H       4.346020      4.179830     -5.344661
  O       6.858021     -0.778386     -0.369366
  H       7.664351     -1.255777     -0.141071
  H       7.109789     -0.098084     -1.038082
  O       5.641354      0.382323      1.749624
  H       6.127534     -0.046980      1.000822
  H       6.266549      0.976983      2.181781
  O      -0.845282     -0.415151      3.066752
  H      -0.069189     -0.962086      2.843516
  H      -0.666610      0.445196      2.668760
  O       7.443628      1.130987     -2.234111
  H       6.666752      1.325171     -2.825593
  H       8.159274      0.853325     -2.813662
  O       4.441305      2.876620      0.375250
  H       4.998509      2.084316      0.428443
  H       3.583473      2.574879      0.747734
  O       2.615070     -3.567818     -2.698342
  H       3.415794     -3.309802     -3.171788
  H       1.904865     -3.433611     -3.338587
  O       4.605523      4.003952     -2.145626
  H       5.001329      3.279164     -2.660922
  H       4.478847      3.621981     -1.250566
  O      -0.211032      1.536604      0.075020
  H      -0.161215      2.019887     -0.760880
  H      -1.151812      1.400049      0.249803
  O       1.615947     -0.833156     -5.235035
  H       2.173842     -1.619274     -5.218408
  H       2.207509     -0.099585     -4.953137
  O       2.202010      1.830615      1.546314
  H       1.266586      1.777568      1.295148
  H       2.395042      1.139972      2.207436
  H       4.233959     -0.047449      2.667621
  O       3.380539     -0.159923      3.147224
  H       3.566695      0.001840      4.079885
  O       1.466914     -1.935458      2.439638
  H       2.240793     -1.422125      2.768939
  H       1.621645     -2.863268      2.654223
58
Coordinates from ORCA-job 00_Aminobutyric-acid_zwitterion E -1433.307558791113
  N       1.268481     -0.997264     -0.216771
  C       2.659080     -0.809816     -0.731898
  C       2.685876      0.079463     -1.960390
  C       4.074252      0.069679     -2.600278
  C       4.226731      1.091381     -3.720958
  O       3.275759      1.254404     -4.525462
  O       5.317509      1.744620     -3.784741
  H       0.777003     -0.100188     -0.075444
  H       0.711540     -1.545102     -0.872082
  H       3.042121     -1.804171     -0.950581
  H       3.239007     -0.374796      0.079727
  H       2.418222      1.100040     -1.672994
  H       1.944074     -0.263740     -2.682610
  H       4.270499     -0.915238     -3.038103
  H       4.841836      0.251824     -1.850510
  H       1.292568     -1.484355      0.697601
  O       2.642555      4.034351     -4.177356
  H       3.178151      4.122021     -3.363164
  H       2.688605      3.079992     -4.371781
  O       5.202219      3.856175     -5.665302
  H       5.346829      3.062924     -5.109450
  H       4.343723      4.177309     -5.341973
  O       6.848493     -0.776440     -0.375338
  H       7.646899     -1.270334     -0.150237
  H       7.108878     -0.097769     -1.043493
  O       5.636992      0.402883      1.735146
  H       6.120946     -0.033408      0.989166
  H       6.274792      0.975186      2.179400
  O      -0.834292     -0.396885      3.073475
  H      -0.064864     -0.951646      2.846138
  H      -0.646413      0.463146      2.679124
  O       7.448763      1.131915     -2.239979
  H       6.671683      1.323341     -2.828885
  H       8.166324      0.861208     -2.822430
  O       4.449404      2.886030      0.385441
  H       5.002563      2.091407      0.453913
  H       3.589330      2.586486      0.754798
  O       2.617457     -3.571917     -2.706934
  H       3.419969     -3.312361     -3.176152
  H       1.908962     -3.434401     -3.348118
  O       4.613879      4.004456     -2.136217
  H       5.007961      3.279413     -2.651919
  H       4.489419      3.624538     -1.239436
  O      -0.210723      1.518126      0.078454
  H      -0.173086      2.012308     -0.751608
  H      -1.148017      1.380779      0.268858
  O       1.620432     -0.829039     -5.239561
  H       2.181080     -1.613078     -5.220883
  H       2.207747     -0.094865     -4.950812
  O       2.196332      1.852692      1.538288
  H       1.265910      1.781763      1.271411
  H       2.395689      1.157086      2.191559
  H       4.228342     -0.036155      2.656164
  O       3.373397     -0.147636      3.134730
  H       3.560828      0.008428      4.068605
  O       1.464270     -1.935326      2.437311
  H       2.236396     -1.417316      2.763465
  H       1.620379     -2.861037      2.659959
58
Coordinates from ORCA-job 00_Aminobutyric-acid_zwitterion E -1433.308189722379
  N       1.258396     -1.025812     -0.229217
  C       2.651194     -0.827211     -0.735672
  C       2.677325      0.064550     -1.962459
  C       4.068960      0.066373     -2.593086
  C       4.221274      1.089694     -3.709237
  O       3.268218      1.260938     -4.508032
  O       5.314751      1.733937     -3.774378
  H       0.762146     -0.130327     -0.092135
  H       0.707878     -1.577326     -0.886399
  H       3.043086     -1.819113     -0.951839
  H       3.224138     -0.388785      0.080975
  H       2.398681      1.082262     -1.675664
  H       1.943005     -0.283424     -2.690190
  H       4.277266     -0.916032     -3.031501
  H       4.831935      0.251396     -1.838964
  H       1.283979     -1.512203      0.686526
  O       2.653152      4.037471     -4.158100
  H       3.192457      4.122585     -3.346253
  H       2.694518      3.081462     -4.352623
  O       5.198391      3.847087     -5.657156
  H       5.339781      3.055238     -5.098656
  H       4.342139      4.175124     -5.333972
  O       6.837775     -0.771671     -0.376178
  H       7.629802     -1.281271     -0.160094
  H       7.107342     -0.096414     -1.046775
  O       5.632639      0.434383      1.716936
  H       6.114685     -0.014995      0.977763
  H       6.287518      0.970901      2.180668
  O      -0.810780     -0.361889      3.084463
  H      -0.054115     -0.931484      2.850461
  H      -0.605089      0.495679      2.694226
  O       7.454056      1.127246     -2.245501
  H       6.677182      1.317039     -2.828446
  H       8.171452      0.862143     -2.835099
  O       4.461708      2.896042      0.400821
  H       5.008717      2.099167      0.492760
  H       3.596314      2.606275      0.765283
  O       2.617985     -3.575913     -2.722951
  H       3.423164     -3.314258     -3.186382
  H       1.911832     -3.432806     -3.365299
  O       4.625026      4.003144     -2.118419
  H       5.017224      3.277965     -2.634979
  H       4.504118      3.624837     -1.218606
  O      -0.212360      1.484378      0.076220
  H      -0.195042      1.993168     -0.745344
  H      -1.144588      1.346777      0.288132
  O       1.624171     -0.820378     -5.248201
  H       2.187949     -1.602171     -5.227221
  H       2.205860     -0.085661     -4.950034
  O       2.186530      1.892488      1.527666
  H       1.266058      1.791261      1.235889
  H       2.395942      1.189038      2.168182
  H       4.224763     -0.016880      2.637840
  O       3.366206     -0.126792      3.114326
  H       3.553417      0.019194      4.050600
  O       1.464729     -1.933078      2.432339
  H       2.234173     -1.407182      2.753686
  H       1.623725     -2.855076      2.668184
