37
 energy: -59.871895107348 gnorm: 0.008210781371 xtb: 6.7.1 (edcfbbe)
N           -0.02961973953090        1.01688888348115        0.88333733741626
C           -0.44359962832235        0.37848137731988       -0.37783286318241
C            0.62131034171508       -0.60135709049411       -0.86305546546031
C            0.31003092390975       -1.10965807493273       -2.26987365127517
C           -1.00329985080870       -1.92421483311862       -2.29670620723679
O           -1.03857474427474       -2.99062849412571       -1.65370426655708
O           -1.96513940712886       -1.45562400924890       -2.96441788035103
H            0.15760155944725        0.31726932091901        1.60068261858558
H            0.83522419772881        1.59040474005865        0.71694209695425
H           -0.59326273670100        1.15128021919374       -1.13156601627337
H           -1.38604700621522       -0.15623070319826       -0.24710814433767
H            0.66872784738587       -1.46868058647835       -0.20051957808750
H            1.59681120205410       -0.11267398898196       -0.87652865412404
H            0.22911977223497       -0.28276926589655       -2.97520259744905
H            1.10215886244573       -1.78420712257049       -2.60046230808970
H           -0.75402179790812        1.68946210846499        1.23745667503295
O           -1.78056216726872        3.01292275017705       -2.54046982191438
H           -2.73345531431914        3.09420206252282       -2.43224275253971
H           -1.65064420487692        2.26014344706349       -3.15038106908417
O           -0.35299234171355        4.24444701870041       -0.46255461333849
H           -0.28496205115864        5.07731677177313       -0.94638066658137
H           -0.78690402835994        3.64376560416930       -1.09284055785542
O            4.15051150330322        1.01474213738079       -4.29537696513852
H            4.36774319589128        0.28886589662744       -4.89080191929568
H            3.89041836267383        1.76227950929782       -4.84889397932863
O           -1.62812454700528        3.05605799423641        1.69474439759808
H           -1.22236740134893        3.68589068206381        1.07062995342067
H           -2.57478642473330        3.22551534982723        1.70373244655635
O           -0.47772335712310        5.49656457655842       -3.02733066550322
H           -0.94852325825920        4.64164230280160       -3.05838123799122
H            0.18821744822855        5.46181408155160       -3.72330056801822
O            1.88856872894871        2.83667860114910        0.28137986138435
H            2.51448301359944        2.83899872504375       -0.44730233558780
H            1.18094101767485        3.47253168313530        0.04905732403658
O           -1.70114903711923        0.88287534067853       -4.22264416489351
H           -2.20181406439281        0.80460658458592       -5.03989629377435
H           -1.82430286864039        0.02435140018994       -3.75144946776952
