34
 energy: -56.715078425591 gnorm: 0.000476062378 xtb: 6.7.1 (edcfbbe)
H            1.46763909239086        0.91020632421472       -0.64519104415786
C            0.68476514317569        0.25604076160815       -1.03404619415416
H            0.34415853144581        1.24073157016551       -2.81859519784852
H            1.15607215670053       -0.55335038879470       -1.59225920894002
N           -0.18577661559671        0.99954993540593       -1.96165432321668
H            0.49152339394701       -1.15263816580025        0.57888638614470
C           -0.10391500488537       -0.36129458308456        0.12402047271221
O           -1.46365472589587        1.33622467016800        1.15204280606641
C           -0.43014544381340        0.63587330688545        1.24549043224947
H           -0.55952496447596        1.87208589189605       -1.53872440903167
O            0.37080793004807        0.70638861458897        2.20912356602340
H           -1.00138555735226        0.39961900259960       -2.22468252661772
H           -1.03537434659314       -0.78581896232665       -0.25051032988156
O            2.84299743842507        1.49781902855156        1.22018797270724
H            3.56396741798748        1.11987273065840        1.73285612531044
H            2.02324138211711        1.23781837256945        1.67636873963587
O           -0.64047006484976        1.02441952214801        4.72031637709898
H           -0.29652471009184        0.98403646146938        3.80328599617257
H            0.11617989630634        0.84753021530355        5.28908619984592
O           -2.42468976671548       -0.54528816958973       -2.40119510292394
H           -2.97378697944140       -0.06993902305783       -1.74185915130852
H           -2.94579900107729       -0.59876431537377       -3.20704271090140
O            1.35891321916830        1.41037726039967       -4.24683226238215
H            1.13743039468222        1.03282811936654       -5.10280375414413
H            1.97131009777036        2.13642805846520       -4.39125990152447
O           -2.89781028579963       -0.64134687900124        4.90250068833309
H           -2.11591817007058       -0.06087760317579        4.86697658695240
H           -3.63465892567343       -0.10880392258607        4.58750305997552
O           -3.59811925750582        1.06290204056574       -0.57110543089609
H           -3.65500624623093        1.96943821498489       -0.89469043959853
H           -2.92097252149764        1.08601246292061        0.13261643098539
O           -1.28188319883388        3.27609144704941       -0.73964458997670
H           -0.80956959524069        4.07461222174151       -0.48995362096566
H           -1.41621471257133        2.75737677919066        0.07389635820877
