37
 energy: -59.882834171437 gnorm: 0.000925533143 xtb: 6.7.1 (edcfbbe)
N            0.37566698797177       -1.18966359635589        1.78285805577113
C            0.52297087424071        0.22465740698683        1.41762022167893
C           -0.32730176141503        0.56349001157700        0.19386259998206
C            0.23549485264195        0.03343137600995       -1.13409111219232
C           -0.13494991839193       -1.40846889622555       -1.53152755204345
O           -0.49238083536844       -1.61769021316518       -2.70052941452426
O           -0.01832448060621       -2.31819148821829       -0.65935911145974
H            1.16423366266334       -1.53515984449010        2.39132985698892
H           -0.51727967852354       -1.34418784798241        2.27539977832871
H            0.21447295108079        0.83812011512290        2.26520288349952
H            1.57196833454372        0.43161555089104        1.20093973756730
H           -0.38992334815988        1.64883500621260        0.11135933915274
H           -1.34101586940830        0.18625710708117        0.33416043714837
H            1.32812644137463        0.07512690066319       -1.11941560026887
H           -0.10445188803721        0.65813822074188       -1.96267347511081
H            0.35498717369519       -1.75343355445014        0.90500928707399
O            1.35475840873337       -2.66426865469194        5.81083428241972
H            1.91945073048971       -2.43460025410202        6.55447502097044
H            1.04490569767857       -3.56479197975675        5.95451467815913
O            1.32348794144090       -4.59367067484252        2.05128239909406
H            1.60604020323767       -4.73907831237768        1.13485912338897
H            0.37165799177025       -4.40197283236376        1.97072385989492
O           -2.16812515831187       -1.97857575399661        2.86070975474993
H           -3.07252172556670       -1.73215958937797        2.65575632662925
H           -1.98194459279791       -2.80776974453811        2.38199663666927
O            1.51834198579843       -4.62870422207528       -0.73915066699349
H            2.19589317991559       -4.58953706181240       -1.41860053685667
H            0.96880138030902       -3.82946848301367       -0.84314670695723
O           -0.48757372964004       -0.66055035169361        4.77278826824699
H           -1.17415913147555       -1.16908909362185        4.31761366124643
H            0.11149667164876       -1.31743284654568        5.15617277794200
O            2.35267597066925       -2.35173882824873        3.19594335109359
H            2.07389802214968       -2.40161798494652        4.12582099324997
H            2.13380592751108       -3.22884541153168        2.81323677959988
O           -1.29877455422787       -3.99233457803595        1.19228848031252
H           -0.94183306877410       -3.47129688275629        0.45257299326250
H           -1.70883264886413       -4.76976871406927        0.80505459227947
