34
 energy: -56.710690575524 gnorm: 0.000373924837 xtb: 6.7.1 (edcfbbe)
C           -0.35353388026051       -0.26597007552872        0.75564150233230
C           -0.58976141646800        0.45031322629709        2.10848125806814
O            0.38437003650372        0.53051894765644        2.89909456841334
O           -1.72515124926820        0.90845238244271        2.32565134699730
C            0.14408829898691        0.74193079042885       -0.27173476379551
N            0.31126585853870        0.10945348752333       -1.59609469727879
H            0.37468616163088       -1.06281461434251        0.90278836289554
H           -1.31419833407357       -0.68516698820169        0.45352890613593
H           -0.57403242203126        1.56024767011139       -0.34493352922867
H            1.10225323190594        1.15899360619597        0.04368368577376
H           -0.58477014506445       -0.24448846274576       -1.93268268740084
H            0.98963997898381       -0.68148773284816       -1.55072594058915
H            0.70075204073034        0.80667648414737       -2.28506056907354
O            1.93401538516547       -2.88320970902856        1.95273559053693
H            1.69510524944997       -3.22864098621099        2.81561172885896
H            2.27602706816011       -1.97567653123277        2.09441972397117
O            1.57370921385436        1.74073522368434       -3.35229694723826
H            2.45272210099662        1.43899194405654       -3.05705191472392
H            1.52785130021856        1.59112000337205       -4.30147891016273
O            3.30931749126303       -3.63032475855793       -0.28066222413460
H            4.22791349487292       -3.53455124381840       -0.01242860671583
H            2.77501866688345       -3.49445431504145        0.52413732787473
O            2.80777954869435       -0.31396464533875        2.28334225959618
H            3.35787911629435       -0.08071577249038        3.03660647067764
H            1.90441135848310        0.04130424395810        2.49402429082075
O            3.28008042120441        1.49222767602106        0.14131668869069
H            3.52441374305867        1.06187987579987       -0.69805949702363
H            3.22927064874548        0.78589760362720        0.80684572598467
O            2.16410824835170       -1.92355125689227       -2.02694019996610
H            1.87684071016509       -2.48706639705056       -2.75180831739731
H            2.56644314935792       -2.52353703208354       -1.36450100711770
O            3.72683042808314        0.29360869551362       -2.39052639283095
H            4.59307416962662        0.06042953627066       -2.73264693842266
H            3.22827332695562       -0.54380387567716       -2.28003229452754
