! Opt B3LYP D4 def2-TZVP TightSCF TightOpt CPCM(water)

%maxcore 5000

%pal
nprocs 10
end

%geom
    MaxIter 500
end

* xyz 0 1
  O           1.32003474766820      1.70519312708191     -4.62718366672277
  H           1.20572096378185      2.18301126089003     -5.45985513618549
  H           1.51580598251148      0.79816600484186     -4.88998856294000
  H          -0.35626337688575      2.54721796086857      1.08873353457832
  O           0.11425201202236      2.91509415253839      1.87993402859725
  H           0.64501372298362      3.64833651052400      1.54437359614064
  H          -0.69366909326320     -1.43396412432039      0.46810313753452
  O          -0.27367958421056     -0.65560080636853      0.85210842377532
  H          -0.70444646870329      0.10517552025034      0.42002769894483
  H          -1.96693407821024     -0.49143134757624     -1.66941777385321
  C          -1.94694500587765      0.28379474723066     -2.43270432815190
  H           0.02693413236985     -0.20282901647037     -2.98555963862669
  H          -2.34251719213780     -0.14680719283274     -3.35132369059155
  N          -0.51885506131221      0.62307213157080     -2.68020192465978
  H          -3.77114137743427      1.21037495387465     -1.83803368257781
  C          -2.73641698127512      1.50851687749544     -2.00508127045624
  O          -1.16963151911697      1.76563758531445     -0.19811897444561
  C          -2.23903257447626      2.20727225605045     -0.73569167713233
  H          -0.12967247462123      1.00256557119489     -1.81130994305337
  O          -2.90195447474300      3.17786545600154     -0.32916504151843
  H          -0.40573437710206      1.33457629779909     -3.40925758556332
  H          -2.73798724605339      2.24894514019859     -2.81084140974794
  O          -4.23040023108231     -0.79233558075062      0.33435493657386
  H          -3.29133892182743     -0.85991462809045      0.54889769571900
  H          -4.29761357755693     -1.17123573185696     -0.55154776771399
  O          -0.58920494286836     -1.61854229024216     -6.11476036006518
  H          -0.08971999589233     -1.06469997522552     -6.73289637963752
  H          -1.35411357423838     -1.07883982563002     -5.87204834965305
  O          -2.59296446712272      3.68213128534933      2.41686499748765
  H          -1.63698186138873      3.50746953642137      2.48052167391719
  H          -2.76406139723870      3.55368511585660      1.45870193117080
  O           0.71510335784877     -1.74521387561844     -3.63744301625214
  H           1.66271495260762     -1.78585697004583     -3.81449668397887
  H           0.29055998284534     -1.71238012632484     -4.52053479091187
*
