16
Coordinates from ORCA-job 01_Aminobutyric-acid_zwitterion E -363.039909937932
  N           1.28332578274300     -0.18489751379804      0.38227388332630
  C           2.76450288718729      0.01433472586573      0.21612719639965
  C           3.10354139366756      0.41401428755247     -1.20756199539762
  C           4.60555637192042      0.60635673360750     -1.37710688719865
  C           5.06842458957474      1.01059449003144     -2.79278250962900
  O           6.30021401990480      1.24099324480608     -2.91375941979373
  O           4.20848578261334      1.07496186906552     -3.70596586694381
  H           0.76651307985678      0.67020136503195      0.16838134746353
  H           0.93352598475500     -0.91677585899460     -0.23919860354277
  H           3.23418062775417     -0.92719142694681      0.49677926377322
  H           3.05339840366997      0.77972984515083      0.93480520683708
  H           2.57860740855178      1.33870175779280     -1.46125031019031
  H           2.74712884680970     -0.35482990264452     -1.89751433325712
  H           5.13370971683415     -0.31611766954991     -1.11460894949576
  H           4.97024039090234      1.36792914573997     -0.68137215376735
  H           1.04824471325492     -0.45520509271042      1.33845413141634
