34
 energy: -56.717790628330 gnorm: 0.000147888679 xtb: 6.7.1 (edcfbbe)
H            1.37953280803770       -0.54251003742005       -0.42410857054245
C            0.29887677631913       -0.55708430739668       -0.57957539987308
H            0.35807591657210        0.19265498533168       -2.52871194372792
H            0.01330691668638       -1.54456386137511       -0.94457378403715
N           -0.07127358874201        0.43676762716975       -1.59909893929201
H           -0.27077829411287       -1.17945929845921        1.39500157323681
C           -0.39517961072770       -0.30301707581480        0.75938790789591
O           -0.33860266638816        2.01139429989265        1.40410383338069
C            0.22993615326681        0.88670794053995        1.52176374314310
H            0.23857110128310        1.39039576176002       -1.34251154030170
O            1.25745278697268        0.68523461284866        2.18571817674289
H           -1.10469528507736        0.48597980445144       -1.71178296818700
H           -1.45742645378301       -0.11428166413695        0.61055162681130
O           -0.47836843509178        1.75330535668544       -5.28111859535625
H           -0.86245967032353        2.25304995149604       -4.52627757008335
H           -0.26132935814618        2.40482476080238       -5.95180386540571
O            1.05545203334441       -0.09478993030326       -4.01098305873691
H            1.95281045698989        0.22014761168767       -4.15272052588733
H            0.47615221301699        0.45660540774824       -4.57680479725978
O            0.43777022581952        3.13819612261013       -0.92463307918338
H            0.12336163521937        2.92989030897841       -0.02307100855397
H            1.25585623468400        3.63252583167378       -0.82748296777458
O           -1.44317454754702        3.04451441219764       -3.09366522570338
H           -0.79530797750974        3.24803066132712       -2.40154593087194
H           -2.04953947263693        2.39834143963330       -2.68971695230185
O            0.03502339652848       -2.43007264687320        6.77649020549073
H            0.49147054981482       -1.91907574900697        7.45248744684769
H            0.32251924658760       -2.08835355971103        5.92417571847477
O           -2.78945532066362        1.00185488643985       -1.75648273575958
H           -2.93452063901895        1.37476867274412       -0.86197136122441
H           -3.56364169717110        0.47884891651210       -1.97885545798559
O           -2.95444716510942        2.03205104372626        0.74198881788351
H           -2.01424641054753        2.05521979654920        1.03217738580488
H           -3.32264585859171        2.89390591770252        0.95478384242043
