34
 energy: -56.697831160682 gnorm: 0.000217235145 xtb: 6.7.1 (edcfbbe)
H            1.29272237844529       -1.16572405549128        0.53243976555543
C            0.62566872778722       -0.97017845644474       -0.31025128550047
H            2.20017508915984        0.06680255438776       -1.21028221658063
H            0.54667751522309       -1.87472035146942       -0.91312274757962
N            1.18678172685516        0.14244455628291       -1.11203520361840
H           -1.15848707189557       -1.37036983360056        0.83855587144226
C           -0.75028971500835       -0.57455029136275        0.21876815549113
O           -0.00810065920663        1.67029731886266        0.62091841063387
C           -0.70514593433205        0.72357802215163        1.05370735429811
H            0.92227634028935        1.00804941007314       -0.54819392302213
O           -1.38427885847930        0.77034916349508        2.10416058527902
H            0.74558197085669        0.20296308075777       -2.03192634728143
H           -1.44591489113852       -0.39239417122902       -0.60379179918895
O            1.23317071791104        3.69731402742810        5.09443839994536
H            0.70964764152519        4.37036913531391        4.64965021151124
H            0.73412587695350        2.86604913228042        4.98851530538803
O            4.69969337074421        0.05003568614225        3.11449743815007
H            5.07912952223938       -0.23703984618015        3.95082750073538
H            4.54544454514105        0.99749305812891        3.18469222958631
O           -0.27028205473990        1.38235471014618        4.60441533547549
H            0.13846525330522        0.51047460147058        4.72743472332729
H           -0.69935298618123        1.33344221467235        3.73185946531304
O           -1.94773708652277       -1.58619386988223        3.29431660858277
H           -2.66615936119253       -1.49937516070065        3.92769023953248
H           -1.85260056388277       -0.70567374560175        2.86748865734224
O            2.12327338004748       -3.75985545700561        3.82167686872167
H            1.79763525855142       -4.51779055911006        3.32807423837539
H            2.40012087430563       -3.10179406214007        3.15536218466940
O            2.48450617012823       -1.45594179345800        2.25608333895057
H            1.82186235382844       -1.18576922407103        2.91990205080170
H            3.29545860551670       -0.96879090596615        2.48287587646432
O            0.60960189039085       -1.31569508491855        4.29047621777219
H            0.99605958359914       -2.15461138789503        4.58421630109798
H           -0.27819661030287       -1.53731341506227        3.94371718832291
