34
 energy: -56.705181402233 gnorm: 0.001895658719 xtb: 6.7.1 (edcfbbe)
H            2.04843117144813        0.35596904684145        0.09379583985113
C            1.20259082755593       -0.21624695508025       -0.29028282894921
H            2.05318478770408       -0.20219892765002       -2.22333169043183
H            1.33463863356074       -1.26673416625813       -0.02366232831054
N            1.14090717100260       -0.06339045186552       -1.75459351558068
H           -0.07380091222986        0.19679574221698        1.40971846478397
C           -0.08381948472873        0.32273952430798        0.32906615504634
O           -0.08022396349976        2.21941962862641       -1.14424521930993
C           -0.31394729977870        1.82038895103478        0.02012327313702
H            0.76737612450608        0.89955856329548       -1.91242225238405
O           -0.74577286698269        2.54746450432595        0.94350256261837
H            0.50494008283105       -0.76052304560579       -2.19322285380994
H           -0.94589889970714       -0.21714417844392       -0.06746028558322
O            1.66463618168697       -3.35262624907437        0.70504296972772
H            2.29428059705461       -4.04635285091975        0.48865522277593
H            1.52291163709134       -3.41131487157269        1.66352639765009
O           -1.68493111680655       -0.52019650680288       -5.08591155311447
H           -2.38286309963180        0.02924049410109       -4.71681292272719
H           -1.24113341602329        0.00000735384550       -5.76382979786159
O           -0.04122662917319       -1.97046348977397       -3.37766264687101
H           -0.48384110861338       -2.79158796880306       -3.14332563481720
H           -0.62875358265854       -1.50922835421387       -4.00218062104348
O           -0.84780058889986        1.60386755433569        3.46552291646171
H           -0.80104418745628        1.99714882900530        2.56296533044048
H           -1.70062056319092        1.87377793888184        3.81957490256693
O            2.96129058927389       -1.20473198340178       -3.47637462844644
H            3.65020273665800       -1.85395872300354       -3.31027017619726
H            2.17329808607074       -1.69067181533995       -3.75657470942523
O            1.34805030883289       -3.43572355006404        3.52013383354793
H            1.88903788192836       -2.79790640937387        3.99750197775079
H            0.46902596489705       -3.40348613722420        3.91002080433215
O            1.46767135964813        1.75573424577318        5.05811583825306
H            0.65711124264007        1.63583884719617        4.53325158400839
H            1.87145833495518        2.56521341064778        4.73293459190838
