37
 energy: -59.866881984429 gnorm: 0.000426560794 xtb: 6.7.1 (edcfbbe)
N           -0.28178004743722       -1.27878671470330        1.47357443455677
C           -0.02864663855298        0.16375238707787        1.67512635997232
C           -0.75385287400287        0.98416789123400        0.61307405410664
C           -0.08216099548946        0.92764114140016       -0.76551252480600
C           -0.53177429078163       -0.22042685143850       -1.68613119712598
O           -0.55960284921191       -0.01107353190354       -2.90948263856845
O           -0.83480063450544       -1.32750965767581       -1.15326230249576
H            0.47030937450448       -1.85123660104260        1.85197749338663
H           -1.18486102141083       -1.55357623275765        1.91829931384662
H           -0.38712962118492        0.44768373934797        2.66511114797147
H            1.04161025268747        0.35917525188303        1.60395351603044
H           -0.76836436680716        2.02445698814567        0.93634773890402
H           -1.78875248977532        0.64800388355510        0.52958675091503
H            1.00078505813266        0.83005601760555       -0.65033272779325
H           -0.26599676997581        1.84582518224979       -1.32653667733443
H           -0.39236629290967       -1.44376211943599        0.43673573801758
O            3.01674766817039       -3.63188300779848       -3.84793867951318
H            2.16279096954287       -3.54280915252480       -4.28216813044526
H            3.33290740950122       -2.74222921697571       -3.66399994094668
O            2.82959926170732       -1.19016404987651        5.89608941768054
H            1.97111004510657       -1.49951380594312        6.20281090643056
H            2.78162716471667       -0.22981434781267        5.85479542110845
O            3.22978211744143        0.69694753286297        0.95380244770091
H            3.93941133649737        0.04674376496413        0.96120247853141
H            3.63098803782320        1.54785218801354        1.15411506988902
O           -3.36253533256152       -1.80892829915032       -0.22089499634115
H           -3.85611326896540       -2.37883085966355       -0.81617587647147
H           -2.48933685696243       -1.67038441092476       -0.63600535228227
O           -2.77058259691433       -2.04405675704263        2.43624906141446
H           -2.89304232215200       -2.97205684600424        2.65795731077195
H           -3.15362645308007       -1.91750821731765        1.54660271122702
O            3.82780746124717       -5.94690778893909       -2.34094034968942
H            3.65029272383601       -5.19346683538644       -2.92504461605614
H            3.03776525035630       -6.05482399938375       -1.80157337331646
O           -2.07415715001975        0.10486533056665        4.21399129619081
H           -2.81429448374008        0.67048778973485        4.44677398331297
H           -2.44609177488425       -0.63771278449374        3.71270473104325
