37
 energy: -59.876575719224 gnorm: 0.001499358030 xtb: 6.7.1 (edcfbbe)
N            0.71563383786593       -1.57056478074714        0.93545007153062
C            1.41410670891239       -0.84474539297825       -0.14622395897640
C            0.44791538719648        0.11044136271250       -0.83957410310520
C            1.07301647143274        0.74114824550955       -2.08629113017799
C           -0.02741785935763        1.36296467268823       -2.96155285594939
O           -0.23548065310361        2.58264890172412       -2.91674770626182
O           -0.68096115811485        0.55079515828240       -3.68572654555769
H            0.34640325594736       -0.91254122978246        1.62603197096410
H           -0.11023596286871       -2.10395778123812        0.52758948203774
H            1.77994284607260       -1.56831487056360       -0.87616316202346
H            2.26243445198203       -0.29220031354814        0.25680023457827
H            0.13105105076632        0.90979344062984       -0.16796263791645
H           -0.43911633626763       -0.44367281043106       -1.14502890179634
H            1.57350031910505       -0.02318773141650       -2.68436281810577
H            1.78482014537875        1.52428098461326       -1.82288279651599
H            1.34139125774175       -2.23433200548219        1.39711249184221
O           -1.39890855438643       -2.85135526983743       -0.12870175368132
H           -1.61558548055072       -2.47109640599965       -1.00227384604406
H           -1.41040759785190       -3.80667677288484       -0.24185927494596
O           -0.08238346235679       -3.54224607890413       -3.95370092524855
H           -0.71463018022269       -3.89460531336096       -4.60674609083518
H            0.41253305842583       -2.83905389490413       -4.41357079799264
O           -1.69608031584251       -1.84788144045087       -2.66638205541682
H           -1.37509912918380       -0.99304926565035       -3.00421031358705
H           -1.10190627121444       -2.51962399040351       -3.09341423500923
O           -3.55233137096760       -2.03059069130033       -4.70557295879709
H           -3.06464416292865       -2.00526872697209       -3.85653741235462
H           -3.38289511119095       -1.15924977264423       -5.10527180935592
O            0.92605549744743       -1.19903943339584       -5.05305097755568
H            0.90596714502422       -0.95947073687533       -5.98307198068881
H            0.31876424541651       -0.58046841895599       -4.59959073172322
O           -2.12284194180295       -4.10812692919193       -5.76243579658477
H           -2.73138246188908       -3.41889529603088       -5.41692403167824
H           -2.17247706926597       -4.05434858165980       -6.72050242053359
O           -2.81605470506021        0.59793154843016       -5.40054144909379
H           -2.04344719339553        0.68240614290148       -4.80470578468293
H           -3.37210670079371        1.36194047807531       -5.22407798883690
