34
 energy: -56.695603844146 gnorm: 0.000169949144 xtb: 6.7.1 (edcfbbe)
H            1.68834872688863       -0.34822041905775       -0.34500565435698
C            0.68038435834999       -0.68631951018327       -0.59026018266586
H            0.57211397462048        0.92789184030437       -1.90877519501185
H            0.75090191986307       -1.56419362383643       -1.23228344045741
N           -0.03830267700389        0.41780741269561       -1.26920236764316
H            0.41238220420703       -1.86792202837335        1.20434077486875
C           -0.06241480593156       -1.03269392103913        0.69612710636948
O           -0.57794051232444        1.24957122305923        1.16800332155860
C           -0.09517611931884        0.18877468818605        1.63605726753405
H           -0.35194280096821        1.04561152322600       -0.47113028255563
O            0.36435795846970        0.05985722110950        2.79132898654619
H           -0.86567743681776        0.07553765134445       -1.76197449088431
H           -1.09598408331199       -1.30828141783571        0.47914941186930
O            3.61999920116404        0.43887547855803        0.27551982906957
H            3.47234562056013        0.02629338293524        1.14449234011078
H            4.55403371878015        0.32248785304599        0.07966050809383
O            2.02200048944949       -0.17362673530658        5.23331911743968
H            1.63108528520317       -0.90820334559735        5.73625021741755
H            1.33148260127271        0.11589687093252        4.62156823741461
O            2.91056461008334       -0.91204714152931        2.62283734305465
H            3.20882594032599       -0.74766387310423        3.52871890808762
H            1.97302295711905       -0.62799730436498        2.64088390710196
O            0.28161143491775       -4.42925469973591        1.05514588882648
H            0.62044564096451       -4.20836915865350        0.16869956079675
H           -0.17508572617878       -5.27059688365441        0.97000687136033
O            0.91080933936452       -2.54378498231837        6.36771364044808
H            0.20422709306990       -2.91715292653964        5.83117039682643
H            1.52241543594124       -3.26090535375362        6.56560638799579
O            1.82735048736652       -3.62967572650728       -1.17758971706503
H            2.33859023986446       -4.19484907002989       -1.76341368515722
H            2.40696260351545       -3.43624398524412       -0.41411283416759
O            2.99348029378435       -3.37770721992404        1.30981771525898
H            3.03326357069928       -2.51861474798272        1.76733897520024
H            2.19526245597373       -3.81352507084268        1.64167913674142
