37
 energy: -59.871980023655 gnorm: 0.000327668142 xtb: 6.7.1 (edcfbbe)
N           -1.05979889146526        0.26643729966794        0.92311129530415
C           -0.01846106480298        0.91873807616642        0.11443359340234
C           -0.32885500454170        0.77318869324411       -1.37316221124533
C           -0.71811901155177       -0.65433197442386       -1.78690994291213
C            0.18280705446494       -1.75839229054654       -1.18418378765440
O            1.06234939065742       -2.26527040033045       -1.90779979559085
O           -0.05045748545813       -2.08883471674277        0.00786745193624
H           -0.98423856815113        0.50140550625604        1.93311094631551
H           -2.01702661501517        0.56083499033515        0.59624936850425
H            0.04061392910008        1.97616583161491        0.37262145029172
H            0.93924392234949        0.44239946010552        0.33371339295675
H            0.54656642044171        1.08633167673737       -1.94122711462820
H           -1.15698004911313        1.43197727750033       -1.63528275396806
H           -1.74193399463407       -0.87099589713248       -1.47521242356899
H           -0.66072614877544       -0.74799946208254       -2.87268428760416
H           -0.93149311529032       -0.75771628967534        0.78000587443364
O           -1.42692799417582        0.96889484771460        3.57658623477428
H           -2.24573889418634        1.46324434440672        3.39260969472901
H           -1.66857848391687        0.23035554470782        4.14169471666995
O            1.00768454283965        4.09347126434533        0.99773608998590
H            0.71247102588455        4.57371724129635        1.77795422390365
H            1.96871896663953        4.08688638053427        1.01875266413347
O           -3.78773501228821        2.37927437822745        2.85838786300071
H           -4.62361152938387        2.20252437847971        3.30093285733723
H           -3.68521480091975        3.33548729915120        2.80851322584548
O           -2.84894633580877        3.30000446702650       -1.44584494656084
H           -3.24613516537444        3.58542789704691       -2.27145163143335
H           -1.97066589146384        3.73511484841436       -1.39843165225069
O           -0.35529720775796        4.40859942031760       -1.45016613866493
H            0.21976489947479        3.95822327955812       -2.08932038424787
H            0.09850461395313        4.32666096884847       -0.59359119515291
O            1.40470853192479        3.14464706634508       -3.31349426546706
H            2.35490778554985        3.29647000974673       -3.31538670582294
H            1.12576627417661        3.09339906830279       -4.23249731563312
O           -3.51541489743673        1.22615086054359        0.28125129242179
H           -3.35307377864674        1.95131806217853       -0.34781648182984
H           -3.68679941727316        1.65107059196467        1.14068679811478
