34
 energy: -56.718048639290 gnorm: 0.000334567171 xtb: 6.7.1 (edcfbbe)
H            0.88441249731436        0.28960763495326       -1.87393050021124
C           -0.12789597488624        0.03110088072037       -1.55887515783263
H           -0.86016074511010        1.86447206482029       -2.36053253754221
H           -0.56440553399739       -0.66324173299744       -2.27769270308306
N           -0.91452224679574        1.26886172633250       -1.49705982088005
H            0.50753167996715       -1.53933019801826       -0.19891763707222
C           -0.07739107265621       -0.62046263319448       -0.17845718491610
O            0.26017995293205        1.50879349569964        0.89507951022654
C            0.53473080895808        0.28274410191102        0.92821013583300
H           -0.52126037346257        1.78512199857973       -0.68239977137747
O            1.23283585173271       -0.27146932151816        1.79571278932808
H           -1.91157136755699        1.10713004116322       -1.29276545126943
H           -1.08541294781149       -0.87276576589469        0.15992291700371
O            1.93127862155751        2.45155304734036       -2.43415579098053
H            2.81567373192504        2.67383526410276       -2.13680448653667
H            1.33345447507693        3.11122472967520       -2.03299061980351
O           -1.63708857862930        3.58345710076065        0.45405790785836
H           -1.07229968198097        3.99696224633909       -0.22904142817744
H           -1.04100472905032        2.99064116491882        0.93304793372259
O           -3.85571814282500        2.73922348595286       -3.37058447740974
H           -4.36414776129789        3.55429691611425       -3.34930731671954
H           -3.80937002593733        2.42448492910144       -2.44682832374486
O           -1.16359728267156        2.98904245160324       -3.57857175864456
H           -0.65201937559229        2.73081216310906       -4.36084486164452
H           -2.11885529415843        2.87454909092710       -3.74943937171403
O           -3.50410527666010        1.98569981906537       -0.70970089291986
H           -2.92754623346007        2.65050744971711       -0.26758220371293
H           -4.18672656979589        1.75140344073897       -0.07774698439242
O            0.99455731042154        2.13673562976645       -5.04834300921220
H            1.42844467005152        2.23975376156772       -4.17914204950557
H            1.29436525715216        1.29684666799358       -5.40422133642937
O            0.04290806683579        4.38907458320445       -1.62219085512948
H           -0.47526518743747        4.03219704453020       -2.37601425806311
H            0.22901647784174        5.30767772088941       -1.83088340504230
