37
 energy: -59.868518580233 gnorm: 0.001389536973 xtb: 6.7.1 (edcfbbe)
N           -1.22263427486068        0.86277208387853        1.09582703874568
C           -0.45512483777335        0.65648733928403       -0.15094224794990
C            0.98261324781584        0.24311802012567        0.13981588708787
C            1.76518845344995        0.14636297521219       -1.16452865602063
C            1.28785198044943       -1.01401870643008       -2.06099445079218
O            0.80310873851726       -2.02723680111886       -1.53564229617653
O            1.43273369901791       -0.85454037426770       -3.30864369969935
H           -1.22945868669815        0.00123956455081        1.64813112509424
H           -0.79624751269199        1.61035047276944        1.64979979056137
H           -0.45665181001741        1.57641798223608       -0.73711583360120
H           -0.92428135439996       -0.12892780979810       -0.74367962096375
H            1.00525982687126       -0.73920654243544        0.61612662783292
H            1.47037743584469        0.97223836687014        0.78782956748128
H            1.69353375376827        1.07177223913422       -1.73639577029993
H            2.82359778584998       -0.04442297012672       -0.96829201449193
H           -2.21914077609896        1.12404050775016        0.87607169272652
O           -3.80598383130775        1.50136723542980        0.52055908755352
H           -4.24863388886805        0.99308312843658       -0.16470805983441
H           -4.09714318658227        2.41497160620403        0.44163457047745
O           -0.44095364397550        2.73061441407896       -2.73386031950716
H           -1.15515570789067        3.33259164585317       -2.96822573156553
H           -0.56297906670338        1.93990436639043       -3.30214127895941
O           -0.58980771954904        0.62469520348423       -4.46855309077229
H           -0.18146372356634        1.09223147954067       -5.23338123103989
H            0.09277663186782        0.00771916661001       -4.14840949571491
O            0.49601699974999        2.19071917684744       -6.41434926520673
H            1.01730309255017        2.70690255169312       -5.75366804860500
H           -0.05130029577577        2.82808926172719       -6.88265543814553
O           -3.05088817729793       -0.18407247679633       -5.57991585339521
H           -2.23049846863984        0.06597109876982       -5.11690333211104
H           -2.77351937683412       -0.63665974292401       -6.38137150648348
O            3.23068105539345        1.00161766459567       -4.05911770166224
H            2.57081058736940        0.31634287430341       -3.79799818738453
H            3.65806078361719        0.66361339476427       -4.85145604998280
O            1.76885951179818        3.32994068870367       -4.32471566676555
H            2.39344347701834        2.59450347653160       -4.17422898063667
H            1.07081027841499        3.21308243810177       -3.64740455976673
