34
 energy: -56.702350309803 gnorm: 0.002444031521 xtb: 6.7.1 (edcfbbe)
C           -0.67373314017878       -0.11883799505932        0.53943366849428
C           -0.69425552892716        0.87183960501363        1.73220486931674
O           -1.71343969800637        0.87173286872048        2.45059641831680
O            0.31441313967655        1.59657059385253        1.91062741451610
C           -0.04077316388580        0.47346974529221       -0.70865866722331
N            0.12291842719990       -0.56017743289907       -1.74856691270028
H           -0.10859523440155       -0.98711196318865        0.88211885914618
H           -1.70565528358129       -0.42213146265244        0.36643729398470
H           -0.67552288668796        1.27655307071274       -1.08523827727587
H            0.93195785049494        0.89183655307565       -0.45065784940540
H           -0.77555320933030       -1.06473986741694       -1.92051365893557
H            0.80569560538303       -1.29380697343212       -1.44745185422322
H            0.45054309661432       -0.15443580986330       -2.62562435339726
O           -2.67150652619826        2.25228425003996       -4.38272841062277
H           -2.06330147235037        2.73337241182258       -4.95355695158191
H           -3.29686200938441        2.89350695254153       -4.03299229443148
O            2.78578469001997        3.60914764287086       -4.08627873974404
H            3.49551858282597        3.15838841691596       -3.61646487557890
H            2.26547141813869        4.07539530302836       -3.42479954742495
O            0.33479519202342       -3.20066681681349       -3.65620032156588
H            0.94796997144371       -3.13284496582352       -2.90358906612619
H            0.50997044197532       -4.04356300678262       -4.08132528866820
O            2.81132284013516        1.51429371391563        0.82589027542317
H            1.94262547751803        1.54595936743102        1.27738469329245
H            3.37009778036354        2.13869179240938        1.29636363108778
O            1.59469976826640       -2.81032513259510       -1.16644803755497
H            0.83980799575370       -3.18399973549723       -0.66308390025891
H            2.37447324998615       -2.87554451292893       -0.61083798090130
O           -0.75195024970200       -3.56197305951760       -0.05542851816498
H           -1.32044365581302       -3.17333235228430       -0.74285490918156
H           -1.13624696717382       -4.41087474116568        0.17737102948756
O           -1.87972688039593       -2.35570980051705       -2.34087622046789
H           -1.19923300839396       -2.73780593577595       -2.93906684016010
H           -2.66704561339700       -2.20095772359978       -2.86806367713560
