34
 energy: -56.706238359509 gnorm: 0.000659272351 xtb: 6.7.1 (edcfbbe)
H            1.16804886874264       -0.46728989949621        0.38195092910902
C            0.15897802368414       -0.73814692435557        0.06670983396172
H            0.56636475673093       -0.06704267801731       -1.86382469905254
H            0.11877880477616       -1.81325196392342       -0.11727694677748
N           -0.17654741593264       -0.00439016968171       -1.16880506977012
H           -0.61692013015178       -0.91104685256195        2.08398762302913
C           -0.81930610851350       -0.35275475571788        1.17126964440334
O           -0.58190484127114        1.96806235712252        0.59321052676427
C           -0.77411032991525        1.15486186953591        1.53501716973559
H           -0.31954879503403        0.98633437760071       -0.86855475591895
O           -0.94891416461175        1.46850760093603        2.72449752902411
H           -1.07186615636332       -0.35201252006503       -1.59321149691003
H           -1.84427827917542       -0.56918606738686        0.86617631618655
O            1.06380576422551        4.72218799539546       -2.36894440184231
H            1.41008338166172        5.17451244148468       -1.59384182649868
H            1.81396527487510        4.50034056249500       -2.93043640166896
O           -2.45250586889779       -0.80906476893531       -2.45857234512735
H           -3.29418218609466       -0.92274612100215       -2.01049220262947
H           -2.55078045017838       -0.00549825479363       -3.02049704960893
O           -1.72188271496674       -5.33999230697215       -2.17039730331794
H           -1.58419872841001       -4.64566998422345       -2.84561522677539
H           -2.67128070336100       -5.41031970148904       -2.04111421737707
O           -1.11326117029158        2.95406123331668       -1.96428656462032
H           -0.43563717690652        3.62038688489168       -2.16145121756618
H           -1.11294459823006        2.85400436042292       -1.00180367046751
O           -0.96226507904917       -2.98402122927350       -3.43220181573078
H           -0.32550698258028       -3.04212644809628       -2.70007135412463
H           -1.54407878810080       -2.23809671739828       -3.20221007388560
O           -2.58466820462995        1.50995541400951       -3.78443720529401
H           -2.15322410748705        2.10363087764929       -3.14139665154319
H           -2.13135621390915        1.64474738000819       -4.62186591241212
O            0.34721039562269       -3.79593337113121       -1.03336362091876
H            1.16598546686671       -4.29778957384689       -1.00630916471861
H           -0.36406854313485       -4.44706604648565       -1.15919937764556
