34
 energy: -56.707129072833 gnorm: 0.003553723419 xtb: 6.7.1 (edcfbbe)
H            0.78226451564910       -0.73789150538165        0.05752368577905
C           -0.30492429672476       -0.77767985834057       -0.02777685969451
H           -0.13265832491097       -1.47510182782464       -1.99745462569436
H           -0.66701758476796       -1.69660879812552        0.43294475017686
N           -0.67722870558546       -0.76257250836632       -1.45270040566688
H           -0.70300632128697        0.41410219798833        1.74269766453231
C           -0.91459279914697        0.43027008201988        0.67445236270660
O           -0.19710119895178        1.85407697608636       -1.12515792874821
C           -0.39968230071120        1.77592855423941        0.10779998497420
H           -0.47494757508487        0.20505810864399       -1.77553697736762
O           -0.23814250392087        2.71922849862662        0.91649037414558
H           -1.69772098234902       -0.94793418761116       -1.54905978424734
H           -1.99939595606328        0.43124748748767        0.54063062693628
O            0.62057552559377       -2.79292294284788       -2.70660257151252
H            0.27192147953995       -3.53555675071518       -2.17009190564059
H            0.40254270571260       -2.99478160963529       -3.62119929089273
O           -0.28966084840119        2.22293385282276        3.59004537507052
H           -0.23788118558846        2.43610298201366        2.63189468669413
H           -0.47510047873146        3.05976298114335        4.02954433846910
O           -0.19998622036068       -2.55686915555700        5.60753110760020
H            0.58822653277481       -2.06255310121738        5.35779973422586
H           -0.89604332929469       -1.91148360159474        5.77082384945333
O           -0.56020808455075       -4.67271739411141       -1.11730940637980
H           -1.46687344874047       -4.40360032091476       -0.88612436149603
H           -0.15176923447747       -5.00507633382191       -0.31439678050326
O           -3.35036813981880       -1.43514961834999       -1.47145660152618
H           -3.98583051605849       -1.38033278831825       -2.19112966202330
H           -3.34585805222155       -2.35850099674425       -1.15756293175087
O           -0.72984587828487       -5.01804518764711        4.30566169966807
H           -0.61071083905030       -4.15784933917749        4.74339054258107
H           -0.15925889627614       -5.63182249632339        4.77774778454988
O           -3.22336164442808       -4.02970513983743       -0.40421459975941
H           -3.80840839448024       -4.70919772990204       -0.75590759457664
H           -3.37906601903614       -3.98636752863560        0.54526671976754
