49
 energy: -431.763207284363 gnorm: 0.000546145767 xtb: 6.7.1 (edcfbbe)
N       -0.2696200270      0.4762676917      1.6913786237                 
C       -0.1774951009     -0.1709841859      0.3479329717                 
C        0.2444489798      0.8629630981     -0.6796940378                 
C        0.2683366384      0.3396369462     -2.1055422600                 
C        0.6098856904      1.4073769004     -3.1367778071                 
O        0.9023855456      2.5756815670     -2.7431908373                 
O        0.5541678886      1.0812585747     -4.3542678143                 
H        0.5908833778      1.0150442330      1.8937721032                 
H       -1.0550561535      1.1584845447      1.7068672631                 
H       -1.1562749153     -0.5940189453      0.1222573740                 
H        0.5425996311     -0.9856500464      0.4208172323                 
H        1.2358926845      1.2285475542     -0.4146373854                 
H       -0.4369307842      1.7136893822     -0.6220203713                 
H       -0.7019283428     -0.0790893418     -2.3879118837                 
H        0.9921805458     -0.4728350757     -2.2201836908                 
H       -0.4159669854     -0.2266387863      2.4351058738                 
O       -0.6151941352     -1.5688872201      3.6856478045                 
H       -0.4248772374     -2.4421801599      3.3180292754                 
H       -1.5196385983     -1.6304934536      4.0206346351                 
O        2.0819416809      1.6496345553     -6.6616319348                 
H        1.6642118165      1.7301395611     -7.5382693116                 
H        1.3367611917      1.8472360788     -6.0658031219                 
O        1.7427722593      4.4332283685     -4.6893677466                 
H        0.9482370238      4.3152218522     -5.2410781857                 
H        1.5461159473      3.8398253983     -3.9340036241                 
O       -0.0951540289     -1.4822264825     -5.1538707826                 
H        0.1108964725     -0.5772214887     -4.8316995812                 
H       -0.7110787005     -1.8429789257     -4.5058565534                 
O        1.9246567866      2.3446654687      1.9688822032                 
H        1.8568991919      2.8869939845      1.1551750417                 
H        2.8203290418      1.9851103250      1.9642155811                 
O        2.6509482862     -0.7923673105     -3.8311837123                 
H        1.8872914974     -0.2782339050     -4.1579226006                 
H        2.5116799629     -0.8188244572     -2.8627795968                 
O        1.4703991288      3.8543049217     -0.3666616384                 
H        2.0535366806      4.5918711427     -0.5857199608                 
H        1.3390024559      3.3455898614     -1.2010185412                 
O       -1.6185956631      3.9119348892     -2.7806035421                 
H       -2.2489477588      3.1789580864     -2.7692149169                 
H       -0.7381188540      3.4860083810     -2.7543885778                 
O       -2.3111501237      0.7940556614     -3.8796498989                 
H       -2.5107176148     -0.1539651211     -3.8531418407                 
H       -1.3674282339      0.8313272530     -4.1376000225                 
O       -2.3387893904      2.4004241144      1.4916945720                 
H       -2.6483869970      2.7723826149      2.3264273188                 
H       -1.9736827830      3.1604360336      0.9756544021                 
H        3.4730630085      1.6271615210     -1.1033915159                 
O        3.5265490914      1.7210558569     -2.0761199172                 
H        2.7467975341      2.2666207558     -2.2964116783                 
          
