49
 energy: -80.252369607466 gnorm: 0.000215335380 xtb: 6.7.1 (edcfbbe)
N           -0.08460848451853        0.42271120013552        1.33848371315516
C            0.23479353040579       -0.20434641746704        0.04521821030458
C            0.19010543859188        0.84529384695191       -1.05679484717042
C            0.57609207508359        0.25250576034373       -2.41076142394374
C            0.78408857596478        1.34334647278083       -3.45391391712411
O            1.60996838803507        2.25706422367340       -3.21162297011590
O            0.11542468376396        1.28990842092220       -4.51973341610456
H            0.52078587903347        1.25649797230866        1.48795587164009
H           -1.07800109335640        0.74528682921645        1.34201445412888
H           -0.48596967950306       -0.99541653881273       -0.16063026123848
H            1.23320721539760       -0.64301117891041        0.08138044710027
H            0.89778205349885        1.63773027798449       -0.81845206074740
H           -0.80696074631959        1.28178282386839       -1.12425610985742
H           -0.18318148422876       -0.44210808251734       -2.77014000244681
H            1.52240942408102       -0.28474427390269       -2.31195153790791
H            0.05082769411610       -0.24883555587345        2.11364322268862
O            0.25620973982395       -1.47151731392108        3.37960149747728
H            0.97018783759232       -1.42730212410033        4.02153756091198
H           -0.51352993987586       -1.84665582654802        3.81620982107962
O            0.88675296088611        2.46650910797690       -6.90146562522770
H            0.07688749836227        2.63857321704779       -7.39299040979640
H            0.61071220553257        2.04085946448601       -6.06489986176023
O            2.27782585384292        4.19470210089341       -5.12634021217033
H            1.96075858125993        3.78959154866694       -5.94865841435023
H            2.04479961448923        3.54220458868448       -4.43859015671852
O           -1.45228690113906       -0.97852468632842       -5.02233033177288
H           -0.82585166145972       -0.23745758804987       -4.92925255310388
H           -1.24836470774521       -1.40199905354300       -5.86078801186192
O            1.45447007169479        2.74311842436816        1.59891538073702
H            1.40122654040249        3.24897165435493        0.77293402127901
H            2.38426012602958        2.71434310462754        1.84029880546473
O            3.44216156946087       -0.96861043910163       -0.67615698559078
H            4.21110137093343       -1.21228497681090       -0.15245090735004
H            3.61035481308319       -0.06441441983684       -0.99648368842596
O            1.53702230272036        4.04548343347514       -0.92932275345866
H            1.84493373962818        4.92581758690856       -1.16233459048305
H            1.54098710491403        3.52777363454883       -1.74706210720675
O           -2.96809556836881        2.46994939464134       -1.23428398522789
H           -2.95235961924082        2.06268072629895       -2.11793888952971
H           -3.06810922748248        3.41510131206568       -1.37781755864201
O           -2.65470653346709        1.45481474612397       -3.79987230529300
H           -2.88548805182136        0.56319990846005       -4.09029030830252
H           -1.72612685458236        1.56199366422103       -4.05673670941242
O           -2.70063244624045        1.30686401728298        1.29236396486466
H           -2.90956842558447        2.02795203353315        1.89351107122646
H           -2.86655760001959        1.63909637944125        0.39479180782107
H            4.59146485016210        1.96545101691798       -2.11518668359663
O            3.82184496993208        1.62111429429983       -1.65341341618046
H            3.04878992832284        1.84547756062295       -2.20305945198995
