58
Coordinates from ORCA-job input E -1433.318885644624
  N      -0.678501      0.792095     -0.351059
  C       0.413157      1.745536     -0.591536
  C       0.142586      2.634509     -1.803684
  C       0.466939      1.996757     -3.165645
  C      -0.615499      1.085815     -3.731088
  O      -1.106208      1.356238     -4.850551
  O      -0.973493      0.080335     -3.064411
  H      -0.469612      0.225969      0.507700
  H      -1.588024      1.291701     -0.218583
  H       0.522271      2.369243      0.296576
  H       1.342318      1.190221     -0.731152
  H       0.766274      3.523996     -1.715173
  H      -0.898505      2.963427     -1.788157
  H       1.382838      1.406082     -3.086097
  H       0.630409      2.779162     -3.909270
  H      -0.782768      0.182479     -1.171215
  O       0.188521     -0.590212      1.834076
  H       0.922902     -0.964820      1.308823
  H      -0.398521     -1.339590      2.049541
  O      -3.587343     -0.103151     -2.182221
  H      -4.140367     -0.060140     -2.969115
  H      -2.674652     -0.019162     -2.516353
  O      -3.698523      0.410310     -5.087427
  H      -4.164570      0.896511     -5.772065
  H      -2.798317      0.793599     -5.043193
  O      -3.220122      1.847593     -0.215057
  H      -3.558001      1.256411     -0.911652
  H      -3.403881      1.373516      0.613834
  H      -0.199910     -1.430143     -2.365741
  H       0.340585     -2.874671     -2.448429
  O       0.002704     -2.206762     -1.821119
  H       1.253322     -1.830379     -0.669423
  H       2.536857     -2.315422      0.064036
  O       1.931819     -1.574437     -0.006717
  O       1.030787     -3.855524     -3.746135
  H       0.864036     -4.799848     -3.813161
  H       0.697634     -3.465891     -4.581741
  O      -1.532754     -2.729546      2.138345
  H      -1.270598     -3.645050      2.257772
  H      -1.927672     -2.665686      1.251728
  H      -1.573895     -2.166228     -0.907283
  O      -2.410443     -2.017508     -0.427546
  H      -2.992306     -1.566501     -1.057346
  H      -1.043154     -2.636583     -5.469824
  O      -0.198216     -2.806316     -5.941134
  H       0.028042     -1.956416     -6.350961
  O      -2.309104     -1.973011     -4.441630
  H      -3.017419     -1.470569     -4.866962
  H      -1.790817     -1.296846     -3.964185
  O       0.750112      2.077533      2.620880
  H       0.617937      1.123916      2.482206
  H       0.187937      2.320457      3.360777
  H      -2.885465     -0.811167      0.911889
  H      -2.836181     -0.614383      2.435334
  O      -3.113854     -0.185002      1.622417
  H      -0.358665      0.158747     -7.783303
  H      -0.427703      0.436907     -6.261819
  O      -0.032179     -0.147065     -6.931318
