37
 energy: -59.874189087056 gnorm: 0.003773990831 xtb: 6.7.1 (edcfbbe)
N            1.00181756639570        0.26000013722608        1.71108873198243
C            0.34203465960682       -0.40454461927429        0.57072462197356
C           -0.73546854785568        0.47873139519021       -0.04409913911649
C           -1.34481456020395       -0.17087978235853       -1.27959064788507
C           -2.54115195790255        0.61334634814258       -1.85938251389102
O           -2.99143295015197        1.58877062143352       -1.23330823022138
O           -3.00273127932066        0.19106043929253       -2.95550302253488
H            1.23026635818230        1.24151324734274        1.47305445473719
H            0.38571473646952        0.25570884789815        2.54798247148708
H           -0.10258914913890       -1.33755841313004        0.91683659105654
H            1.09206318284642       -0.63541109461591       -0.18593645533790
H           -0.31494288767095        1.44239861010453       -0.33609557543855
H           -1.53958051389092        0.67329259543045        0.66648515403847
H           -1.71831388169833       -1.17309709233783       -1.05397733259523
H           -0.61207924367053       -0.27173560077569       -2.08268407647133
H            1.88173251524345       -0.25403480516813        1.93431915076872
O           -1.43817718957449       -2.59815357478090        3.04738223184356
H           -2.34574174085497       -2.89320653090285        2.92767558148491
H           -0.92593375437147       -3.35456099257478        3.35237608322019
O            1.57769173597735        2.98312004094072        1.17815699257079
H            0.88275249685503        3.62362395700385        1.35026602739850
H            2.40668449172750        3.36725221353193        1.48539058537360
O            0.53459500091202       -2.21542018989489       -5.22303087889960
H            0.39337628236124       -1.63683906509549       -5.97930329500569
H           -0.31239167610443       -2.22434665762503       -4.74206531913861
O           -0.69690175511416       -0.03408619810723        3.87980999136913
H           -1.49155931615572        0.46676972796507        4.08376354879492
H           -0.97997072867884       -0.94021271100685        3.66367339338388
O           -2.01095000305571       -2.03773767011946       -4.04814865555278
H           -2.34791550881849       -1.19053294374116       -3.66832409838376
H           -2.78449924349385       -2.47621902762463       -4.41485234849115
O            3.33436645026476       -1.19597811770096        1.84573473368899
H            3.25441051852069       -1.58162524915799        0.95859494196071
H            4.18827844513250       -0.75602509696175        1.88332735583536
O            2.98987162027434       -2.08916036004743       -0.81123733273770
H            3.43833506091125       -1.73730158774767       -1.58610341859325
H            2.62621776593847       -2.94240780069921       -1.06250330281196
