! Opt B3LYP D4 def2-TZVP TightSCF TightOpt CPCM(water)

%maxcore 5000

%pal
nprocs 10
end

%geom
    MaxIter 500
end

* xyz 0 1
O         -0.20251       -2.13265        1.15863
H         -0.75527       -1.41123        1.55196
H          0.56421       -1.66051        0.74688
O          2.23360        3.57948       -0.61821
H          1.60142        4.30324       -0.85716
H          2.05925        3.40487        0.34079
H          1.96209       -2.85503       -3.81477
O          1.88618       -2.23854       -4.58597
H          2.20954       -1.36857       -4.24089
H         -1.48244       -0.60457       -0.77475
C         -1.28254       -0.03936       -1.71023
H          0.27031       -1.25973       -2.28371
H         -1.95229       -0.44790       -2.49766
N          0.10338       -0.23756       -2.14168
H         -2.71718        1.52938       -1.31727
C         -1.62612        1.44739       -1.51111
O         -0.08473        1.41417        0.44944
C         -0.91569        2.10526       -0.35527
H          0.77889        0.10991       -1.42695
O         -1.11999        3.28613       -0.12469
H          0.26967        0.25805       -3.04752
H         -1.39850        1.99841       -2.44912
O         -4.44064        4.05342       -1.00293
H         -3.64564        4.21625       -1.57040
H         -4.06936        3.75119       -0.13611
O         -1.80901       -3.21677       -3.56268
H         -0.84446       -3.35257       -3.74037
H         -1.87191       -3.14614       -2.57697
O          3.10641       -1.61374       -1.18369
H          3.60029       -1.02409       -1.80727
H          2.87870       -1.02874       -0.41793
O         -4.11408        0.75595       -3.82172
H         -3.21969        0.92730       -4.21074
H         -4.48745        1.65744       -3.65388
*
