34
 energy: -56.696865840604 gnorm: 0.000235871152 xtb: 6.7.1 (edcfbbe)
H            1.24227506822320       -1.28714923155526       -0.11403929761718
C            0.15953226034782       -1.22616250023771       -0.00401492175001
H           -0.03498210893021       -0.40731874175632       -1.92984878738897
H           -0.28004702961674       -2.19422288215416       -0.24600880294383
N           -0.34623387674924       -0.20329963475771       -0.94040361511577
H            0.26211627999735       -1.56543146858940        2.12158670131823
C           -0.16317737097841       -0.83670270996319        1.43218711310416
O            0.64724745743941        1.37732737484550        0.92772716376392
C            0.36828156418872        0.55926030890570        1.83540766463825
H            0.03860366081291        0.69315760541453       -0.56541257837883
O            0.46069492983923        0.80096215376433        3.05949615378390
H           -1.36515935198411       -0.17028484286171       -0.90532182831847
H           -1.24064745054063       -0.81800887843555        1.61159916012517
O           -1.30117094885345       -0.48415647758471        4.70435041888198
H           -0.86047772306933       -0.57516983317037        5.55489260741825
H           -0.66957013765302        0.00501577780031        4.13637519668232
O           -1.16392697376149       -3.33175288829316       -2.20351974857499
H           -1.32337038450358       -4.27750651116217       -2.18695411836336
H           -1.69116879494860       -2.97798912000682       -2.93573045746425
O           -0.46499443734294       -0.89890167724855       -6.35692878042631
H            0.18315532167322       -0.68378126908845       -5.67163496916543
H           -0.57856634240404       -0.10672563039625       -6.88977729779795
O           -2.22311034577147       -1.80567526308645       -4.42303448377445
H           -1.75866593877135       -1.70343324737491       -5.27389808890810
H           -3.01206679614379       -1.25859150268416       -4.47729829207334
O           -2.06568215215209        3.41276358502330       -3.96403254548583
H           -2.36772635082972        3.74605024182823       -3.11391571246279
H           -1.11716668911773        3.57116412516836       -4.00676563131341
O            1.21241039240757       -3.73486362403975        2.74681123685437
H            0.63856675954562       -4.37645534311881        3.17793958681749
H            2.10246021696880       -3.88346875537591        3.08036535575100
O            0.27349432579665       -1.03024207870110       -3.43591101828544
H           -0.64345259972093       -1.24644335270096       -3.69811327555127
H            0.67388356657259       -1.88044670843748       -3.22432810798051
