37
 energy: -59.876623603404 gnorm: 0.000309315922 xtb: 6.7.1 (edcfbbe)
N            1.25630587205708       -0.10701313415902        1.52080711385342
C            0.55815322799301        1.15988267297768        1.20936402991746
C           -0.50579937740723        0.94922040473439        0.13880455222015
C            0.04023066968006        0.28018514439194       -1.12174566132885
C            0.03213472577885       -1.26187883852465       -1.08457769581258
O            0.27317739541356       -1.85054489298721       -2.16802785277474
O           -0.18937508571312       -1.84409125191555        0.00134918545138
H            1.46843222661204       -0.17847669390620        2.53090552771166
H            0.65256350393371       -0.89948985257978        1.21188279248180
H            0.07577229946959        1.52709723217006        2.11413122767443
H            1.28937962274807        1.89227199712991        0.86891961219661
H           -0.92469336213067        1.91948174859882       -0.12520340186235
H           -1.31090128086387        0.32608182061875        0.53596720917440
H            1.06394188930452        0.60192662018537       -1.32019187959976
H           -0.55174808996031        0.55585287659853       -1.99681574696518
H            2.13779278670879       -0.18445563139991        0.97524644911492
O            3.56144611537253       -0.39112985892284       -0.03061361907952
H            3.35055241745269       -0.67970008572338       -0.93429235415275
H            4.24969022980778       -0.98459629222349        0.28490461062887
O            2.65950626398996        3.57587630129353        0.24059446636259
H            2.20055813401675        3.53553762388272       -0.62335784568989
H            3.56844836070703        3.82797584349079        0.05893032194917
O           -1.02329119132674        4.26341202173523       -0.43961258198965
H           -1.68295584585509        4.94587713096681       -0.58884144782202
H           -0.47443573923574        4.57098813306220        0.31478967373096
O            1.15116688730056        3.67906730175920       -2.04199554505850
H            0.31228677109364        3.81330857083633       -1.55775204991018
H            1.22720249388847        4.41209705500570       -2.65987131860477
O            1.76980545904782       -0.09724240522607        4.26868620506636
H            1.58292928505377       -0.86431214642971        4.81671266139471
H            2.59957692327016        0.28593254544440        4.56936974224232
O            0.71620557418961        5.00117571176006        1.53751437001056
H            1.48435840873255        4.53775490710379        1.14172025764337
H            0.63903865448060        4.66570055548394        2.43492934093528
O            2.90477620876626       -1.33028401901014       -2.58036040901592
H            3.02412988669291       -1.00184668087739       -3.47688718001503
H            1.96877367888796       -1.60509643535271       -2.51313076007128
