37
 energy: -59.875823884174 gnorm: 0.000743793580 xtb: 6.7.1 (edcfbbe)
N           -0.30517678658218       -0.49998838752974        2.10591759048103
C            0.57825887229089        0.39616038390362        1.34226703824988
C            0.04028663177531        0.66948739753770       -0.06181627995309
C           -0.44534311088497       -0.59110666581397       -0.79483283421559
C            0.50323790210898       -1.78951026182301       -0.62795522999387
O            1.45399044613160       -1.93444617585095       -1.42035468569060
O            0.25416906508591       -2.57565749221668        0.32775073159827
H           -0.00987801375912       -0.56536107599720        3.11236024282491
H           -1.29403245735447       -0.20070624548502        2.08106751766288
H            0.68966797306506        1.33940349678563        1.87590808017028
H            1.55839729721050       -0.07935849025688        1.26470893104705
H            0.83658669333252        1.12727662842956       -0.64964570249621
H           -0.79107787541619        1.37450227231152       -0.01594941947279
H           -1.42807774205125       -0.89165065633568       -0.43061091709677
H           -0.52157051956534       -0.37043736554346       -1.85994351618480
H           -0.24625973749568       -1.43886550776838        1.66886705303689
O           -2.49809850800878       -1.07125072914828        4.97966742612632
H           -2.76935968554297       -0.91509649028764        4.05161711658388
H           -2.98777791801871       -1.83882009626325        5.28653387216003
O           -2.26395423195383        3.22223073702792       -0.11633146487997
H           -2.27187485394195        3.70347420409447       -0.94829477870334
H           -2.44210887852629        3.86054974323430        0.58218947267037
O            2.31488141461964        0.32454777493954       -2.70996001812522
H            3.13078789788169        0.10829107519038       -3.17070804546476
H            2.01927460114136       -0.51073950142889       -2.29003817541993
O           -3.08794406275523       -0.75158458461875        2.31418240294686
H           -2.92943433765931       -1.59942940536252        1.85337421855906
H           -3.92161493494680       -0.40531197488127        1.98692048646074
O           -2.34356507348827       -3.06111828522526        1.03901951222206
H           -1.41737529269930       -2.97748531708729        0.73335397443910
H           -2.43702984513851       -3.96052776489615        1.36424757798343
O           -1.79235884155680        1.27118062587486        6.45880022112073
H           -0.87398378462172        1.28512390459690        6.16789847788394
H           -2.19266734474839        0.51509684098267        5.99806625371380
O            0.20325430351041       -0.72166124048202        4.76383288790646
H           -0.73846481013089       -0.90034984909760        4.96531455315001
H            0.71024254880334       -1.46701052147854        5.09539742861476
