37
 energy: -59.873027059864 gnorm: 0.000226029771 xtb: 6.7.1 (edcfbbe)
N           -0.22171099840376       -0.78135597615714        1.96544841738798
C           -0.29231447093051       -1.01373593676711        0.50980686688419
C            0.42129591147365        0.08139165602823       -0.27359136846791
C            0.48297582072510       -0.30900099391617       -1.74273569095355
C            1.17776133116396        0.71926097085887       -2.65233039301079
O            1.59671843291754        1.78582040320053       -2.16510177127201
O            1.27964008281348        0.39618921172044       -3.86918074149743
H            0.76692742372323       -0.84152817120086        2.26935790663029
H           -0.60486809222264        0.13306043751600        2.20389482424830
H           -1.33148726128320       -1.06738753628850        0.18671095249796
H            0.18240773898923       -1.96711163784838        0.28525863436047
H            1.44152590874785        0.22786718995207        0.08404896109421
H           -0.09445070894162        1.04000566988068       -0.19158327083842
H           -0.52326020668090       -0.45090912544026       -2.14230001633295
H            1.02102883454324       -1.25060257245612       -1.86707234653624
H           -0.75172745070413       -1.54151340745195        2.47477073601489
O            2.42966531977425       -1.44693689963598        2.67278719599786
H            3.08945989450012       -1.25794249091895        1.99987293314985
H            2.78528969661143       -1.15572774009712        3.51884533038553
O            1.26704230277230       -3.86204939400576       -0.48423871409789
H            1.93979375513736       -4.46743511311321       -0.80471616963834
H            1.15587931967008       -4.04550528839868        0.46888272378128
O           -0.83030780598561       -3.50962414393334       -2.34649613280101
H           -0.38387957511234       -3.06028979253335       -3.08244842200247
H           -0.13802714476782       -3.65181670419794       -1.67477994257633
O            0.54897101972180       -2.12961406858043       -4.43358464176042
H            0.34392873399251       -2.14241041956080       -5.37282228870567
H            0.83167244197916       -1.20381332889809       -4.23578642411692
O           -1.28658562245976       -2.95298165061654        3.14866693244304
H           -2.05213380393430       -3.34956527376973        2.72588659901826
H           -0.50845340162792       -3.48368114290571        2.88619607616171
O           -2.82726327180127       -1.91468311222568       -1.30985248830225
H           -3.58880539217434       -2.00809104804654       -1.88651316383609
H           -2.14396082054602       -2.51786077993914       -1.66882065840823
O            1.15606053448092       -3.95044129042267        2.31994939928585
H            1.62536617999231       -3.10641489080659        2.45724958263084
H            1.61521534385636       -4.61081960903370        2.84632957323043
