! Opt B3LYP D4 def2-TZVP TightSCF TightOpt CPCM(water)

%maxcore 5000

%pal
nprocs 10
end

%geom
    MaxIter 500
end

* xyz 0 1
N          1.42016       -0.14832        0.72068
C          2.01242       -0.16501       -0.61625
C          1.38617        0.92425       -1.50434
C          1.94559        0.92371       -2.93645
C          3.39110        1.33877       -3.04629
O          4.10260        1.71300       -1.96508
O          3.92248        1.36147       -4.14459
H          1.59599        0.77559        1.17798
H          0.39081       -0.32374        0.66124
H          1.83821       -1.16084       -1.08051
H          3.10778       -0.01712       -0.52449
H          1.52629        1.92828       -1.04958
H          0.29432        0.72528       -1.56538
H          1.81635       -0.09007       -3.37379
H          1.35018        1.64005       -3.54254
H          1.85712       -0.90014        1.30078
O         -0.46909        1.53371        3.16674
H         -0.83026        1.53664        2.24469
O          7.18539        2.11010       -2.99640
H          6.86056        1.17632       -2.93983
H         -0.16481        0.60250        3.31135
H          6.62625        2.52531       -3.70035
O          4.57996       -1.98921       -2.27674
H          5.08176       -1.13615       -2.24707
H          3.89241       -1.84877       -2.97530
O          4.66462       -0.14973        2.03676
H          5.07464       -0.52814        1.21868
H          4.31241        0.73125        1.75311
O         -1.42422        0.42260       -3.98882
H         -0.68920        0.09068       -4.56332
H         -1.46897       -0.22776       -3.24349
O          3.06315       -3.50507        0.73296
H          3.64416       -2.74814        0.46859
H          2.28272       -3.44263        0.12671
O          2.80092        4.04683        0.35780
H          3.67661        3.77685       -0.01716
H          2.54558        3.29878        0.95422
*
