34
 energy: -56.714267548126 gnorm: 0.000497640230 xtb: 6.7.1 (edcfbbe)
H            1.57294733229242       -0.02056002158036       -0.26372018984297
C            0.57431434931521       -0.32203833603020       -0.58435756931013
H            0.62951017628933        1.10722770737047       -2.11344341162024
H            0.65182528349092       -1.22092003817933       -1.19524210282942
N           -0.01936269064057        0.77041859524498       -1.37636350547684
H            0.12219820907390       -1.43424407776696        1.21450463325158
C           -0.28628115880296       -0.60341196522161        0.64074069160317
O           -0.28313542313552        1.75512549595916        1.09685240941099
C           -0.42389208330315        0.60539460829555        1.58546538615478
H           -0.20828769816518        1.52538896245260       -0.68812463521971
O           -0.69043513371128        0.38282216265615        2.78586219506651
H           -0.92269265909822        0.47010749071442       -1.80953271661418
H           -1.29860743665513       -0.87837452046329        0.33587029024221
O           -1.67838663949647       -2.07072594644072        3.41423907423267
H           -0.97184800863720       -2.65596854550718        3.08978555804234
H           -1.32939190856607       -1.16167842850353        3.28474745200546
O           -3.11822961638123       -2.14281532505697       -0.74133626213506
H           -3.46459280801191       -2.07031418429829        0.16750080548852
H           -3.15139741253640       -3.07935726145430       -0.95809132601713
O           -3.91923050876841       -2.05473959639066        1.88397335833152
H           -3.12708909575214       -2.12883058713506        2.46163669629613
H           -4.47599382923740       -1.38439398800185        2.28862939122100
O            0.45135553917908       -3.62716782220391        2.34884591329323
H            1.19874453102468       -3.80141969451034        2.92923670608604
H            0.23347931372990       -4.45805795444073        1.91230819979249
O           -0.61304312011830        4.07037171039022        2.56248438083974
H           -0.47635299908641        3.26494331170184        2.01924388482765
H           -0.92262205848743        3.75264504691776        3.41564092077118
O            1.77448511283021        1.69395597935257       -3.29603977852887
H            2.27830560050190        2.47903371799322       -3.06412778505807
H            1.46879608891154        1.80097610860307       -4.20200750631095
O           -2.35013746136091       -0.15222536143998       -2.51343542864570
H           -2.33759715158574       -0.59231814860484       -3.36924743935844
H           -2.72477263514079       -0.78768909443389       -1.87956828999595
