! Opt B3LYP D4 def2-TZVP TightSCF TightOpt CPCM(water)

%maxcore 5000

%pal
nprocs 6
end

* xyz 0 1
C         -0.03670        0.72550       -2.96510
C         -0.81390        0.35210       -4.19420
O         -1.02240       -0.94420       -4.49520
O         -1.26870        1.22070       -4.92140
C          1.39150        0.17060       -3.03250
N          2.14960        0.53270       -1.83530
H         -0.55840        0.31470       -2.07410
H          0.00550        1.83310       -2.87030
H          1.90610        0.58070       -3.93030
H          1.35880       -0.93830       -3.12200
H          2.21140        1.57330       -1.74930
H          1.68940        0.13500       -0.98430
H          3.11640        0.14180       -1.91090
*
