13
Coordinates from ORCA-job 03_Alanine_zwitterion E -323.737885663134
  C           0.01097540562369      0.76608719679154     -3.04791104839118
  C          -0.86091059247566      0.35113946379630     -4.25480648705512
  O          -0.41263794275660     -0.54478971664790     -5.01181343068557
  O          -1.95616697350478      0.95308988787404     -4.36628512603557
  C           1.35637183411543      0.07277336378790     -3.01317136320315
  N           2.14873804756887      0.51724870514822     -1.81153814770084
  H          -0.55174636406218      0.54452349652733     -2.13611550968466
  H           0.14380423651202      1.85093800649162     -3.07937574671428
  H           1.96048847098521      0.30947395290152     -3.88525643611232
  H           1.25802381041325     -1.00658764904072     -2.93664109501367
  H           2.30757358335417      1.52638634564984     -1.82295859887495
  H           1.66160768395972      0.29480502181187     -0.94145151782097
  H           3.06247880026685      0.06261192490845     -1.77757549270766
