58
Coordinates from ORCA-job 07_Aminobutyric-acid_zwitterion E -1433.314912690646
  N       0.292613      0.900652     -0.411768
  C       1.150685      2.061193     -0.802685
  C       0.561399      2.890075     -1.939756
  C       0.474233      2.193232     -3.300279
  C      -0.581376      1.099560     -3.427113
  O      -0.308834      0.113152     -4.176603
  O      -1.661101      1.214871     -2.793468
  H       0.597276      0.450968      0.461039
  H      -0.682865      1.210463     -0.248855
  H       1.255153      2.680749      0.084656
  H       2.131620      1.666227     -1.063216
  H       1.218363      3.755564     -2.046840
  H      -0.414389      3.280509     -1.649205
  H       1.447281      1.786321     -3.579661
  H       0.220080      2.941106     -4.058914
  H       0.286148      0.159511     -1.124900
  O      -3.866246      0.332377      1.390699
  H      -3.394215     -0.518427      1.260757
  H      -4.785183      0.162658      1.151653
  O      -1.248548      3.952707      1.398599
  H      -0.618658      4.459208      0.872520
  H      -1.678167      3.336756      0.766432
  O      -0.151413     -0.511505      2.001517
  H       0.326784     -1.198827      2.482159
  H      -0.888449     -0.961410      1.528543
  O       3.016570     -1.326612     -2.516612
  H       2.861267     -0.950044     -3.415158
  H       3.118799     -0.557916     -1.939801
  O      -2.204366     -1.682296      0.540307
  H      -1.970537     -2.635566      0.554560
  H      -2.425586     -1.454944     -0.390939
  O      -2.257772     -1.810130     -4.755109
  H      -2.671101     -1.886001     -3.877454
  H      -1.620887     -1.073524     -4.621137
  O       2.241411     -0.364669     -4.989391
  H       2.236338     -1.080271     -5.641730
  H       1.291151     -0.184989     -4.779807
  O       2.868991      2.543253      2.267494
  H       3.168948      1.682004      1.956104
  H       1.927679      2.404351      2.514383
  O      -1.429018     -4.339345      0.541197
  H      -0.495717     -4.420100      0.781809
  H      -1.897242     -4.920269      1.155995
  O       0.309971     -1.693678     -1.983303
  H      -0.100566     -1.267885     -2.750233
  H       1.271287     -1.637973     -2.159254
  O      -2.346941      1.985702     -0.190198
  H      -2.963981      1.367043      0.263075
  H      -2.393169      1.837967     -1.147387
  O       4.563638      1.338806     -1.944261
  H       4.468119      2.265317     -1.690652
  H       4.785597      0.887415     -1.120443
  O      -3.044495     -1.000745     -2.016745
  H      -2.535167     -0.217306     -2.341126
  H      -3.967965     -0.715897     -1.993692
  O       0.206413      2.146864      2.978039
  H      -0.326258      2.792326      2.462366
  H      -0.083784      1.264417      2.688065
58
Coordinates from ORCA-job 07_Aminobutyric-acid_zwitterion E -1433.315200767789
  N       0.300998      0.897817     -0.414884
  C       1.155929      2.060337     -0.809155
  C       0.558821      2.888131     -1.941855
  C       0.470818      2.193544     -3.302716
  C      -0.582163      1.097488     -3.429840
  O      -0.309679      0.110661     -4.178879
  O      -1.662042      1.212627     -2.796196
  H       0.604950      0.450761      0.458992
  H      -0.674506      1.208315     -0.251721
  H       1.265497      2.677816      0.078790
  H       2.136778      1.670298     -1.076760
  H       1.210473      3.758226     -2.049059
  H      -0.419071      3.271551     -1.647015
  H       1.442851      1.787805     -3.584094
  H       0.215328      2.941890     -4.060133
  H       0.295759      0.154558     -1.125555
  O      -3.866859      0.336796      1.388103
  H      -3.397942     -0.514195      1.259785
  H      -4.786501      0.168985      1.148117
  O      -1.244797      3.949475      1.398216
  H      -0.608274      4.452452      0.875064
  H      -1.674358      3.335962      0.764256
  O      -0.155763     -0.515669      2.008457
  H       0.319218     -1.203503      2.489905
  H      -0.893198     -0.963453      1.533689
  O       3.033768     -1.314786     -2.526418
  H       2.871195     -0.943513     -3.425159
  H       3.140162     -0.542748     -1.953481
  O      -2.211061     -1.681886      0.541895
  H      -1.980975     -2.635719      0.555491
  H      -2.431132     -1.454484     -0.389569
  O      -2.256519     -1.815755     -4.746701
  H      -2.670306     -1.887260     -3.872313
  H      -1.620165     -1.081417     -4.615354
  O       2.240426     -0.367032     -4.998738
  H       2.232331     -1.083367     -5.645601
  H       1.291327     -0.188169     -4.784744
  O       2.861010      2.541336      2.307551
  H       3.168908      1.685526      1.987089
  H       1.918636      2.394949      2.545139
  O      -1.450300     -4.338791      0.548643
  H      -0.515983     -4.423137      0.780655
  H      -1.916268     -4.911940      1.171625
  O       0.322283     -1.691218     -1.972784
  H      -0.093582     -1.270320     -2.742147
  H       1.285015     -1.632705     -2.155351
  O      -2.344338      1.986427     -0.192615
  H      -2.962783      1.368849      0.261084
  H      -2.391302      1.837151     -1.153583
  O       4.569935      1.350170     -1.973483
  H       4.471002      2.277831     -1.722507
  H       4.801242      0.903804     -1.149472
  O      -3.044872     -1.000034     -2.017472
  H      -2.537440     -0.215324     -2.344376
  H      -3.968143     -0.718578     -1.994853
  O       0.194647      2.138743      2.990069
  H      -0.333748      2.782462      2.470803
  H      -0.091415      1.255254      2.695439
58
Coordinates from ORCA-job 07_Aminobutyric-acid_zwitterion E -1433.315544680810
  N       0.316864      0.890801     -0.418942
  C       1.165874      2.057308     -0.816858
  C       0.554353      2.884470     -1.940812
  C       0.464776      2.193892     -3.302618
  C      -0.583349      1.093072     -3.430439
  O      -0.310153      0.106534     -4.178989
  O      -1.664246      1.207056     -2.797124
  H       0.618225      0.449566      0.457355
  H      -0.658400      1.202817     -0.257215
  H       1.284901      2.669451      0.073852
  H       2.146585      1.676970     -1.098633
  H       1.196143      3.762293     -2.047758
  H      -0.426345      3.255733     -1.638315
  H       1.435882      1.790147     -3.588299
  H       0.206135      2.943088     -4.057775
  H       0.315587      0.142481     -1.125336
  O      -3.868934      0.352302      1.380824
  H      -3.406256     -0.501291      1.256931
  H      -4.789490      0.189437      1.139396
  O      -1.235963      3.941058      1.390812
  H      -0.587632      4.436078      0.873488
  H      -1.666191      3.332798      0.753132
  O      -0.165343     -0.520663      2.018016
  H       0.303504     -1.210028      2.502132
  H      -0.903374     -0.964194      1.541521
  O       3.063551     -1.289777     -2.541014
  H       2.887174     -0.929320     -3.440172
  H       3.180487     -0.511695     -1.977727
  O      -2.225830     -1.678417      0.545160
  H      -2.004105     -2.634398      0.558518
  H      -2.444295     -1.451570     -0.386554
  O      -2.253038     -1.830658     -4.726571
  H      -2.670351     -1.892671     -3.855570
  H      -1.616225     -1.098777     -4.599357
  O       2.234543     -0.370627     -5.012097
  H       2.219900     -1.091058     -5.651007
  H       1.288316     -0.193140     -4.788243
  O       2.844706      2.533832      2.371896
  H       3.168278      1.691886      2.029899
  H       1.900984      2.370812      2.592889
  O      -1.486589     -4.337302      0.553661
  H      -0.547564     -4.426292      0.761406
  H      -1.941289     -4.899512      1.194160
  O       0.349180     -1.681427     -1.949406
  H      -0.076924     -1.272825     -2.721860
  H       1.311567     -1.618368     -2.144086
  O      -2.337906      1.987469     -0.201238
  H      -2.960206      1.374257      0.253544
  H      -2.384914      1.834699     -1.164991
  O       4.579926      1.372158     -2.024758
  H       4.473323      2.300759     -1.778785
  H       4.831214      0.936072     -1.200791
  O      -3.046035     -0.999109     -2.014383
  H      -2.544738     -0.211633     -2.347856
  H      -3.971113     -0.726378     -1.991605
  O       0.172151      2.119336      3.003851
  H      -0.348212      2.761162      2.477587
  H      -0.105300      1.234335      2.701425
58
Coordinates from ORCA-job 07_Aminobutyric-acid_zwitterion E -1433.315821062045
  N       0.330372      0.884259     -0.421814
  C       1.173921      2.054646     -0.820393
  C       0.551315      2.882139     -1.937747
  C       0.460222      2.194127     -3.300594
  C      -0.584679      1.089823     -3.429814
  O      -0.310397      0.104884     -4.179054
  O      -1.666736      1.201474     -2.796858
  H       0.629920      0.447656      0.456819
  H      -0.644643      1.196851     -0.261709
  H       1.299315      2.661542      0.073304
  H       2.154752      1.682649     -1.113630
  H       1.185975      3.765055     -2.044758
  H      -0.430541      3.245631     -1.629927
  H       1.431152      1.792048     -3.589841
  H       0.198701      2.943942     -4.054017
  H       0.333567      0.131807     -1.125372
  O      -3.871248      0.366791      1.374283
  H      -3.413523     -0.490113      1.254329
  H      -4.792310      0.208654      1.131600
  O      -1.228166      3.933742      1.385524
  H      -0.570951      4.422640      0.873702
  H      -1.659072      3.330059      0.743752
  O      -0.172668     -0.525002      2.022213
  H       0.291242     -1.215900      2.508919
  H      -0.911463     -0.965356      1.545134
  O       3.085903     -1.268335     -2.554855
  H       2.898274     -0.916696     -3.454546
  H       3.215129     -0.485330     -2.001104
  O      -2.237462     -1.676293      0.547177
  H      -2.023775     -2.634311      0.560570
  H      -2.455109     -1.449523     -0.385111
  O      -2.247918     -1.845060     -4.710486
  H      -2.669942     -1.898756     -3.840947
  H      -1.610191     -1.113814     -4.585558
  O       2.227300     -0.372134     -5.023936
  H       2.206266     -1.096638     -5.658127
  H       1.283449     -0.195333     -4.790202
  O       2.830438      2.529623      2.420666
  H       3.168328      1.702772      2.056590
  H       1.886424      2.349924      2.628109
  O      -1.520577     -4.340958      0.563127
  H      -0.579139     -4.436197      0.756529
  H      -1.970810     -4.891459      1.216763
  O       0.374774     -1.669238     -1.933040
  H      -0.061059     -1.273278     -2.706738
  H       1.335406     -1.603363     -2.137420
  O      -2.331926      1.986629     -0.209395
  H      -2.958091      1.378046      0.246284
  H      -2.377933      1.830962     -1.173179
  O       4.589942      1.392478     -2.063501
  H       4.475142      2.320853     -1.820521
  H       4.860288      0.964603     -1.240744
  O      -3.045774     -0.998869     -2.011802
  H      -2.552138     -0.208466     -2.351898
  H      -3.973620     -0.735696     -1.987651
  O       0.153774      2.102549      3.011986
  H      -0.360675      2.743916      2.480274
  H      -0.114939      1.216341      2.702910
58
Coordinates from ORCA-job 07_Aminobutyric-acid_zwitterion E -1433.316154803317
  N       0.342073      0.878358     -0.422455
  C       1.180815      2.052139     -0.819481
  C       0.550173      2.880421     -1.932489
  C       0.457596      2.193300     -3.296208
  C      -0.586071      1.087289     -3.427953
  O      -0.310704      0.105140     -4.179288
  O      -1.669354      1.195674     -2.795575
  H       0.640775      0.445592      0.458213
  H      -0.632717      1.190605     -0.264000
  H       1.310005      2.654411      0.077051
  H       2.161733      1.686584     -1.122111
  H       1.180502      3.766009     -2.040433
  H      -0.431601      3.240401     -1.621589
  H       1.428805      1.792364     -3.587832
  H       0.193981      2.943535     -4.048545
  H       0.350226      0.122637     -1.124204
  O      -3.874858      0.380675      1.369114
  H      -3.421327     -0.479819      1.252809
  H      -4.796001      0.227217      1.124582
  O      -1.222970      3.927395      1.383363
  H      -0.559715      4.412544      0.876517
  H      -1.653924      3.327668      0.737463
  O      -0.179043     -0.528021      2.021854
  H       0.280394     -1.220184      2.511690
  H      -0.918963     -0.966392      1.545350
  O       3.101151     -1.250474     -2.568559
  H       2.904166     -0.906611     -3.469254
  H       3.247071     -0.462985     -2.025432
  O      -2.247279     -1.675136      0.549276
  H      -2.042563     -2.635189      0.563491
  H      -2.464183     -1.448118     -0.383825
  O      -2.240489     -1.860193     -4.697156
  H      -2.668412     -1.906113     -3.828301
  H      -1.601795     -1.128320     -4.572937
  O       2.217913     -0.373829     -5.034773
  H       2.189568     -1.101998     -5.666381
  H       1.276375     -0.196519     -4.790418
  O       2.817049      2.530315      2.455347
  H       3.167747      1.719955      2.067850
  H       1.873818      2.333724      2.652231
  O      -1.550796     -4.347208      0.570491
  H      -0.608512     -4.448625      0.757914
  H      -2.001297     -4.888740      1.231614
  O       0.399573     -1.654011     -1.922504
  H      -0.046641     -1.272697     -2.696380
  H       1.357765     -1.587237     -2.134953
  O      -2.326233      1.984075     -0.215481
  H      -2.956643      1.380508      0.240633
  H      -2.369771      1.825814     -1.177474
  O       4.600639      1.409079     -2.092292
  H       4.476525      2.336252     -1.850687
  H       4.891532      0.988331     -1.272463
  O      -3.043545     -0.999052     -2.009129
  H      -2.559192     -0.205607     -2.356583
  H      -3.974735     -0.746336     -1.982202
  O       0.138323      2.089961      3.015765
  H      -0.372308      2.731681      2.480051
  H      -0.120832      1.202753      2.700952
58
Coordinates from ORCA-job 07_Aminobutyric-acid_zwitterion E -1433.316530503809
  N       0.350419      0.875112     -0.420717
  C       1.186292      2.050852     -0.815105
  C       0.551866      2.880200     -1.926563
  C       0.457782      2.192627     -3.290917
  C      -0.586960      1.087426     -3.426181
  O      -0.310853      0.109055     -4.181496
  O      -1.670997      1.191830     -2.794240
  H       0.650049      0.444534      0.461031
  H      -0.624370      1.185716     -0.263344
  H       1.316596      2.650740      0.082943
  H       2.166636      1.687489     -1.123773
  H       1.181583      3.765629     -2.036411
  H      -0.428779      3.241333     -1.614875
  H       1.429529      1.792348     -3.583372
  H       0.193202      2.943389     -4.042637
  H       0.363087      0.117747     -1.122098
  O      -3.879810      0.388278      1.366459
  H      -3.428747     -0.474858      1.252538
  H      -4.800421      0.238357      1.118854
  O      -1.223427      3.922901      1.386155
  H      -0.558102      4.408272      0.883072
  H      -1.652966      3.325354      0.736743
  O      -0.183779     -0.529739      2.017028
  H       0.272248     -1.222345      2.510360
  H      -0.925010     -0.968103      1.542021
  O       3.106753     -1.237703     -2.581669
  H       2.903893     -0.899679     -3.484062
  H       3.273449     -0.446843     -2.049342
  O      -2.253346     -1.676647      0.551333
  H      -2.057798     -2.638468      0.567219
  H      -2.468922     -1.448929     -0.382584
  O      -2.229805     -1.872552     -4.689964
  H      -2.663615     -1.913183     -3.821575
  H      -1.591104     -1.138795     -4.565022
  O       2.208453     -0.374593     -5.045118
  H       2.172557     -1.104891     -5.676410
  H       1.268932     -0.195382     -4.790829
  O       2.806544      2.536724      2.472092
  H       3.165350      1.740504      2.064126
  H       1.864821      2.326624      2.663415
  O      -1.578043     -4.357700      0.581653
  H      -0.636193     -4.465972      0.769526
  H      -2.032698     -4.889471      1.248201
  O       0.419784     -1.636301     -1.921055
  H      -0.036502     -1.270681     -2.694588
  H       1.375744     -1.570816     -2.138882
  O      -2.321342      1.979583     -0.217186
  H      -2.955696      1.379940      0.238298
  H      -2.360809      1.819796     -1.176689
  O       4.609882      1.415763     -2.108870
  H       4.476525      2.341162     -1.867135
  H       4.921471      1.000748     -1.293809
  O      -3.037963     -1.000268     -2.007580
  H      -2.562831     -0.204117     -2.361548
  H      -3.972189     -0.756869     -1.976844
  O       0.127633      2.084426      3.016944
  H      -0.382171      2.726779      2.479210
  H      -0.122015      1.196662      2.697544
58
Coordinates from ORCA-job 07_Aminobutyric-acid_zwitterion E -1433.316915174987
  N       0.355390      0.875101     -0.416872
  C       1.190880      2.050970     -0.809862
  C       0.555772      2.881231     -1.921382
  C       0.460063      2.193102     -3.286183
  C      -0.587000      1.090524     -3.425052
  O      -0.310908      0.116063     -4.185670
  O      -1.671011      1.191254     -2.793126
  H       0.657443      0.445386      0.464761
  H      -0.619709      1.183220     -0.259941
  H       1.321282      2.651401      0.087708
  H       2.169565      1.685409     -1.121656
  H       1.187340      3.764897     -2.033521
  H      -0.423468      3.245650     -1.609667
  H       1.432142      1.793084     -3.578435
  H       0.195606      2.944798     -4.037283
  H       0.371215      0.117331     -1.118697
  O      -3.885510      0.388012      1.366157
  H      -3.435220     -0.476099      1.253272
  H      -4.805097      0.240036      1.114198
  O      -1.229491      3.920041      1.391777
  H      -0.565134      4.408691      0.890920
  H      -1.656196      3.322564      0.740101
  O      -0.187307     -0.529808      2.010640
  H       0.266428     -1.221629      2.507724
  H      -0.929607     -0.969857      1.537585
  O       3.104817     -1.229351     -2.593087
  H       2.899433     -0.895889     -3.497641
  H       3.294426     -0.436297     -2.071366
  O      -2.256101     -1.680340      0.554025
  H      -2.069361     -2.643612      0.572368
  H      -2.469405     -1.451886     -0.380493
  O      -2.216537     -1.880243     -4.687470
  H      -2.654936     -1.918563     -3.820129
  H      -1.579525     -1.143884     -4.561828
  O       2.200848     -0.375345     -5.055094
  H       2.157770     -1.106073     -5.686837
  H       1.263161     -0.193006     -4.792810
  O       2.798788      2.546577      2.475013
  H       3.160326      1.759722      2.051952
  H       1.858738      2.328009      2.665432
  O      -1.601775     -4.369450      0.594431
  H      -0.660790     -4.484585      0.783894
  H      -2.060636     -4.891373      1.266117
  O       0.433016     -1.617697     -1.924674
  H      -0.031983     -1.267823     -2.698690
  H       1.387807     -1.555079     -2.145992
  O      -2.317317      1.974179     -0.214409
  H      -2.954809      1.376663      0.239306
  H      -2.351742      1.814014     -1.172605
  O       4.616452      1.410882     -2.117357
  H       4.474742      2.334706     -1.875212
  H       4.948003      1.001274     -1.307874
  O      -3.029551     -1.002705     -2.006874
  H      -2.561947     -0.204365     -2.365177
  H      -3.965805     -0.766239     -1.972423
  O       0.120834      2.085051      3.017890
  H      -0.390253      2.727363      2.479498
  H      -0.120337      1.196983      2.694891
58
Coordinates from ORCA-job 07_Aminobutyric-acid_zwitterion E -1433.317471722888
  N       0.361078      0.877686     -0.409923
  C       1.197672      2.052296     -0.804037
  C       0.562290      2.883456     -1.915452
  C       0.464152      2.195856     -3.280998
  C      -0.585863      1.097325     -3.424569
  O      -0.310922      0.128556     -4.193802
  O      -1.669061      1.193458     -2.791735
  H       0.667551      0.448823      0.470750
  H      -0.614905      1.181773     -0.253230
  H       1.329356      2.655817      0.091030
  H       2.172949      1.680672     -1.119067
  H       1.196658      3.764801     -2.030329
  H      -0.415346      3.251440     -1.602647
  H       1.436259      1.796113     -3.573041
  H       0.200498      2.949561     -4.030650
  H       0.380135      0.119574     -1.112315
  O      -3.893984      0.380711      1.366311
  H      -3.443641     -0.483341      1.254286
  H      -4.811625      0.234263      1.106529
  O      -1.241648      3.916718      1.400334
  H      -0.579835      4.411302      0.901815
  H      -1.663119      3.317594      0.746454
  O      -0.192200     -0.528729      2.002847
  H       0.258843     -1.218034      2.506005
  H      -0.935377     -0.972183      1.532517
  O       3.099120     -1.217434     -2.609711
  H       2.891764     -0.891001     -3.517354
  H       3.323421     -0.422309     -2.104175
  O      -2.257989     -1.687276      0.559213
  H      -2.084115     -2.652548      0.581736
  H      -2.466844     -1.458064     -0.376045
  O      -2.194931     -1.887656     -4.686128
  H      -2.638251     -1.924975     -3.821187
  H      -1.562457     -1.146894     -4.560797
  O       2.191864     -0.376445     -5.071274
  H       2.138781     -1.106772     -5.702903
  H       1.257125     -0.188863     -4.799135
  O       2.788602      2.560823      2.475077
  H       3.150208      1.783308      2.035046
  H       1.850652      2.334488      2.666558
  O      -1.637497     -4.386515      0.615821
  H      -0.698341     -4.512813      0.807739
  H      -2.102996     -4.893097      1.294792
  O       0.447043     -1.589810     -1.929534
  H      -0.029152     -1.263755     -2.706244
  H       1.401269     -1.531705     -2.156213
  O      -2.311348      1.965849     -0.207516
  H      -2.952704      1.369841      0.242537
  H      -2.337965      1.805971     -1.165878
  O       4.623920      1.395789     -2.129087
  H       4.469954      2.317616     -1.886962
  H       4.985386      0.995765     -1.328406
  O      -3.014842     -1.007847     -2.006016
  H      -2.556055     -0.206616     -2.368144
  H      -3.952942     -0.779231     -1.966908
  O       0.112154      2.089071      3.021869
  H      -0.401140      2.730117      2.482585
  H      -0.117790      1.200475      2.693835
