! Opt B3LYP D4 def2-TZVP TightSCF TightOpt CPCM(water)

%maxcore 5000

%pal
nprocs 10
end

%geom
	MaxIter 1000
end

* xyz 0 1
  N           0.29261262494415      0.90065178383725     -0.41176787325136
  C           1.15068504650871      2.06119328024317     -0.80268492595427
  C           0.56139901721297      2.89007460551515     -1.93975622447053
  C           0.47423326471762      2.19323211840370     -3.30027850068554
  C          -0.58137645140245      1.09955997645791     -3.42711290490291
  O          -0.30883389892323      0.11315181134605     -4.17660313457776
  O          -1.66110111149185      1.21487132463699     -2.79346845030076
  H           0.59727632906989      0.45096770113341      0.46103870387099
  H          -0.68286530067377      1.21046254805683     -0.24885458325147
  H           1.25515252134537      2.68074869722401      0.08465604975545
  H           2.13162028481708      1.66622704119999     -1.06321626544441
  H           1.21836310119647      3.75556426713777     -2.04684030443950
  H          -0.41438915199216      3.28050884819825     -1.64920513852980
  H           1.44728140691302      1.78632113537017     -3.57966079085758
  H           0.22007991736201      2.94110619445488     -4.05891362131988
  H           0.28614826673561      0.15951147771695     -1.12489960574783
  O          -3.86624567162062      0.33237657548926      1.39069866010080
  H          -3.39421544729578     -0.51842695197209      1.26075720370044
  H          -4.78518271481292      0.16265774716708      1.15165332762614
  O          -1.24854777193538      3.95270725099223      1.39859937176211
  H          -0.61865770411010      4.45920816783097      0.87251990332085
  H          -1.67816738014201      3.33675556072980      0.76643160209738
  O          -0.15141292860909     -0.51150488094301      2.00151672224193
  H           0.32678444333179     -1.19882665983821      2.48215924210884
  H          -0.88844872472439     -0.96140993516428      1.52854322526356
  O           3.01657000419697     -1.32661179194874     -2.51661186170325
  H           2.86126703349101     -0.95004427893019     -3.41515765132372
  H           3.11879873289910     -0.55791619715986     -1.93980089806839
  O          -2.20436640675276     -1.68229576453103      0.54030736251933
  H          -1.97053686208406     -2.63556567964255      0.55455961913383
  H          -2.42558555085477     -1.45494420165764     -0.39093909836204
  O          -2.25777152599018     -1.81012963789980     -4.75510869548000
  H          -2.67110117896999     -1.88600102412085     -3.87745378595486
  H          -1.62088724961300     -1.07352385099910     -4.62113708762601
  O           2.24141118412191     -0.36466948107359     -4.98939091180415
  H           2.23633830046696     -1.08027140732782     -5.64173037153454
  H           1.29115144684039     -0.18498860262790     -4.77980653288263
  O           2.86899056511434      2.54325319590809      2.26749411851991
  H           3.16894772761630      1.68200412051532      1.95610374308410
  H           1.92767905717344      2.40435119913852      2.51438331296042
  O          -1.42901756023494     -4.33934516256693      0.54119652265896
  H          -0.49571749511269     -4.42010029406748      0.78180862265779
  H          -1.89724190071244     -4.92026857815669      1.15599462991599
  O           0.30997055096318     -1.69367784737775     -1.98330321557361
  H          -0.10056591122305     -1.26788495310704     -2.75023261185219
  H           1.27128707181789     -1.63797313227902     -2.15925439852079
  O          -2.34694050541196      1.98570178609404     -0.19019784028120
  H          -2.96398096467382      1.36704323837676      0.26307547581071
  H          -2.39316860999191      1.83796718539331     -1.14738734460526
  O           4.56363801306176      1.33880609053110     -1.94426073786851
  H           4.46811893969311      2.26531683930391     -1.69065193790606
  H           4.78559740071219      0.88741504385525     -1.12044257167152
  O          -3.04449504824351     -1.00074545342352     -2.01674543019378
  H          -2.53516696331080     -0.21730614008593     -2.34112589388828
  H          -3.96796548743377     -0.71589667659514     -1.99369247431604
  O           0.20641302860275      2.14686355792704      2.97803852862754
  H          -0.32625834239919      2.79232643306097      2.46236635061563
  H          -0.08378407531541      1.26441664184360      2.68806451945704
*
