37
 energy: -59.874149507389 gnorm: 0.000255828659 xtb: 6.7.1 (edcfbbe)
N            0.11375821678764        0.08801663854220        2.07675618590856
C            0.40875738194466       -0.73793625925568        0.89666195631055
C            0.19075581356108        0.05306212866199       -0.38866472119740
C            0.47172168683600       -0.77427813505268       -1.63583320904572
C            0.56860164869967        0.09971252631662       -2.91795074250373
O            0.98305790392584        1.27151395148168       -2.79322318563275
O            0.24414587912988       -0.45047278035925       -3.99408152265558
H            0.68065836695157        0.95541051606591        2.05988065928331
H           -0.88930375280307        0.36531583537833        2.10212078575223
H           -0.23707961450082       -1.61645364360965        0.89866757120297
H            1.44675158068394       -1.06994671210573        0.93986392278948
H            0.85761727101101        0.91652904339147       -0.42650140433781
H           -0.83406424020965        0.42447417535381       -0.44061311205566
H           -0.28946070004310       -1.53447592011005       -1.81740988516536
H            1.44010043244045       -1.27652200279558       -1.55485625930361
H            0.30469983999499       -0.43752653635219        2.97162126648724
O           -2.01731334845875        0.00721757451250        5.30776166964493
H           -1.50011371164672        0.64810211031251        5.83863963598673
H           -2.68851554970886       -0.35365017582121        5.89253472388954
O            1.50857623031682        2.53552025579650        1.99438753199428
H            1.68940546085863        2.89591551458619        1.12324052904048
H            1.11700062135955        3.23808385188088        2.52416901756083
O           -0.33322911727475        1.45634913853178        6.89722634400585
H           -0.37773458567338        1.49681457718698        7.85569976346908
H            0.55529933492329        1.12489050212495        6.67805306014722
O           -2.52151755096983        0.69223637970253        2.65053867523686
H           -3.32069604756836        0.22962981813426        2.38912342160855
H           -2.40514607183815        0.53345882852960        3.60742439198349
O            2.14740319731691       -2.55393346987153        6.18539426319218
H            1.44324469877874       -2.45488781901343        5.52182060449647
H            2.79152386072436       -3.16121975576551        5.81301808664759
O            0.36483793820780       -1.11527100506400        4.48061390053140
H           -0.54225822992960       -0.90231096724452        4.77065120309817
H            0.93417208763064       -0.49921856476827        4.97784391898448
O            2.09906365058323        0.22646422807061        6.21517595284832
H            2.94841069985127        0.58278560641129        5.94065879759515
H            2.25081571809181       -0.69699245385207        6.48666720221060
