34
Coordinates from ORCA-job 00_Alanine_zwitterion E -858.889351701983
  C          -1.38086156765630     -0.27210341783426     -1.01171255288333
  C          -1.89312665502987      0.76937861388062     -0.01678126363213
  O          -2.22553696043187      1.88592221230230     -0.50743515894149
  O          -1.93295049440989      0.46328535289824      1.19914510785000
  C          -0.81681694381660     -1.51299230471251     -0.34678570764894
  N          -0.09687109856686     -2.35950782063604     -1.35382461754708
  H          -0.61948921875075      0.21344234079618     -1.62541129784499
  H          -2.20023005277644     -0.53526625382335     -1.68642892534319
  H          -1.59340513909181     -2.12569456292215      0.10371645631040
  H          -0.08741791023562     -1.25704475802027      0.41680605713037
  H          -0.70061955610116     -2.61418636501126     -2.13628439889997
  H           0.72899506291894     -1.83901234157437     -1.71917622316201
  H           0.23913193835439     -3.22555760465904     -0.93254946000024
  O          -2.83500167218790      3.94727877750181      1.24549485519416
  H          -2.69406324020839      3.21854502341708      0.60034996900915
  H          -2.25010856834006      3.69220532131145      1.97659280509635
  O           2.08291139543999     -0.68721452261964     -1.90258938309146
  H           1.84038253035538      0.13949047405712     -2.40392629907426
  H           2.86579668008613     -1.05375033470410     -2.33287611349301
  H           0.60327596882518      3.01939642039653     -0.43304576361393
  O           0.12949972917142      3.13365259420843     -1.29109348765559
  H          -0.75503271627985      2.74387591275586     -1.12471974400863
  O           1.36092903699794      2.66882054464033      1.13175172483744
  H           0.62156461929250      2.56701882790279      1.76637654098034
  H           1.75718103782651      1.77723101222850      1.03307709494673
  O           1.37815910634560      1.58781349761370     -3.11305127487252
  H           0.76669323271003      1.45952461213384     -3.84867891565001
  H           0.90131511314283      2.16723027491124     -2.45976092201718
  O           2.54791150836917      0.17416934999231      0.71929281480800
  H           2.23371033166209     -0.51898857976269      1.31266737955074
  H           2.39675901411577     -0.16610278184093     -0.18830929394416
  O          -0.91789065794210      2.39360847896429      2.75275491727474
  H          -1.36235529134405      1.65253875750505      2.26159787573062
  H          -0.83918771304207      2.10719211865710      3.67060978654142
