! Opt B3LYP D4 def2-TZVP TightSCF TightOpt CPCM(water)

%maxcore 5000

%pal
nprocs 10
end

%geom
    MaxIter 500
end

* xyz 0 1
  C          -0.91433010803544      0.46918102947108     -0.75607042079896
  C          -1.77620933875222      1.46622166021812      0.02113863702540
  O          -1.88277932511477      2.62001435198302     -0.48847711172366
  O          -2.33051377600211      1.10466478618791      1.08330872230897
  C          -0.85983358631456     -0.90964405460527     -0.12972931981104
  N          -0.17971515935091     -1.87425782039061     -1.05539437078571
  H           0.08853214876849      0.89043797815927     -0.85489498742298
  H          -1.32418534812956      0.40342757512222     -1.76752103286953
  H          -1.85442963650742     -1.30129098343226      0.06596097687904
  H          -0.29235581830474     -0.91558688493064      0.79724053558703
  H          -0.68792979602975     -1.95080991609224     -1.93754883022681
  H           0.79183172180280     -1.58082294148775     -1.27457220017111
  H          -0.13854402229224     -2.80765517857562     -0.64551471388652
  O          -3.21388892920949      4.42192308166184      1.10095491045592
  H          -2.74979552892796      3.74695146203455      0.55201676738647
  H          -3.65652930561993      3.91301773979427      1.78972136965836
  O           2.50421174069409     -1.07863365951968     -1.59573822546564
  H           2.64457472691988     -0.63259308834853     -2.44286332699556
  H           3.10590796315839     -1.83666346775152     -1.59925499848263
  H           0.34152779258683      3.78776934498215     -2.30048534848868
  O          -0.45077987888588      3.35566108440369     -2.64155750093061
  H          -0.96851449876426      3.07717991789366     -1.84131183279507
  O           1.25116389322762      1.94649500541407      2.22369257289385
  H           0.58967324938206      1.32520397318591      2.58193656251370
  H           1.84593119108617      1.41688458539335      1.66042592005618
  O           0.17014904993901      1.14925157348231     -4.21031161256783
  H           0.54520667063321      0.47806462538011     -3.62908173613773
  H          -0.02471062307395      1.91384236928336     -3.62447664009866
  O           3.13934248251234      0.58655449551301      0.62319037142334
  H           3.75017308696187      0.07026216430628      1.16309706257583
  H           2.91767489738684      0.01578793843279     -0.13718671826483
  O          -0.88714970944895      0.37946340940799      3.25142096553051
  H          -1.46182716774855      0.54133874520398      2.46650201490660
  H          -0.77862820914467     -0.57744203182635      3.30717612065857
*
