34
 energy: -56.715339374285 gnorm: 0.000348457196 xtb: 6.7.1 (edcfbbe)
C            0.17980937686741       -0.45211433264222        0.60256398919004
C           -0.10499347302248        0.31207702945290        1.91484395576218
O           -0.01785416078755       -0.34387765573386        2.98209290065068
O           -0.39521506717582        1.52515487696714        1.85032089729665
C           -0.09268364560623        0.42047806613343       -0.60471042635706
N            0.12086822535661       -0.27337775670415       -1.88408200177295
H            1.22277726554277       -0.76875638349214        0.64402547299032
H           -0.44678528206722       -1.34352683640002        0.60097179007719
H           -1.12757137287045        0.75806231791849       -0.55915485707086
H            0.54986243595893        1.29934857778156       -0.55855839962227
H           -0.44510578288887       -1.15568912821578       -1.93873161625558
H            1.09576139007802       -0.58389620243413       -1.99425976445889
H           -0.13746498447189        0.38808089925203       -2.63195963700241
O           -0.38271862064750       -3.00780652693173        2.82230779315730
H           -0.26609406492386       -2.03632620115534        2.93332667430280
H            0.40218396455226       -3.41389635925628        3.20131042455106
O           -1.84298713618048       -3.48200439661995        0.51655175243476
H           -2.75953150394977       -3.45869797627389        0.80429965380188
H           -1.30359107687759       -3.40422063808369        1.32355807472642
O           -2.69769893159088       -3.23135136948092       -4.08227996251160
H           -2.38954930464889       -3.73272247587136       -4.84308617824978
H           -3.19606058554271       -2.47903298386834       -4.41708715810265
O           -1.07022216944005        3.31564657335561       -0.23824635150304
H           -0.87559400270008        2.74853678609431        0.52938657431434
H           -1.01697990228091        4.22083472034557        0.08054167206391
O           -0.86628089611448       -2.80953621590246       -2.01155449644247
H           -1.21140431538014       -3.11732894073009       -1.15747130790738
H           -1.54459164349894       -3.01799820541594       -2.67705647114554
O           -0.84725980277154        2.15379505198850       -2.95989962457499
H           -1.62654010863684        2.42730908204455       -3.45117885381322
H           -0.88320917414905        2.61617002190143       -2.11006517489303
O            1.97751000953186       -2.34285808880400       -2.19509329036552
H            1.11215120672511       -2.78315050862715       -2.20290362617780
H            2.61677413360739       -2.98921282059841       -1.88974542708929
