34
 energy: -56.708198707101 gnorm: 0.000346850856 xtb: 6.7.1 (edcfbbe)
H            0.89818250390061       -0.72863548578294        0.17921225520808
C           -0.14255535680951       -1.04053005255712        0.08505463057485
H            0.11347083063046       -1.25371994299564       -1.98394322211538
H           -0.22172553642892       -2.08644076649868        0.37937193099972
N           -0.57914085177275       -0.87177499212645       -1.31345310465553
H           -0.72156551139072       -0.33456965394235        2.03943102563059
C           -1.01075939531333       -0.18478864880133        1.00105562890824
O           -0.91521175345655        1.65421987996018       -0.53368064065065
C           -0.91739034212127        1.31927364295206        0.67855774081194
H           -0.69161480688108        0.15769903148442       -1.43603685795129
O           -0.87587097624694        2.12926782689257        1.62767463363307
H           -1.50383919499417       -1.31805996582641       -1.46138504893399
H           -2.06103223287664       -0.46525741593763        0.89157231574215
O           -0.72775035609757        4.25199100733165       -1.48458843466694
H           -0.79854219288476        3.32805778249170       -1.16624834209112
H           -0.73631844241188        4.79990494358630       -0.69453042136294
O            2.66843277217958       -2.64424643667732        5.25100503372175
H            1.98478744544315       -2.73631017399700        5.92104217706037
H            2.27154499206938       -2.09499813257041        4.54646140771185
O            0.40251639894166        1.49249831055862        3.93442336893474
H           -0.05227388279264        1.78034537315522        3.11409299943429
H           -0.16436413111212        1.76482879052865        4.66215921979000
O            3.06230358226572       -0.56057887634225        1.04275568952369
H            3.58355160449745        0.24516306958161        1.10692188304252
H            3.67996551527127       -1.28717266552580        0.90523323574204
O            1.29770070806359       -1.88762485025089       -3.10945786048378
H            1.90768487036683       -1.28678690400279       -3.54583636030964
H            1.10175951319571       -2.60469619459427       -3.71999318617640
O           -3.10947474534917       -2.02715274948736       -1.63963700743278
H           -3.23808355818822       -2.95217395396359       -1.87234070115749
H           -3.78771394378243       -1.51540045653650       -2.08903852674237
O            1.46409072723898       -1.02570672754222        3.33590911272615
H            1.99755102980993       -0.86434228899816        2.53796035284389
H            1.16671171710445       -0.14670332357084        3.62918607272108
