37
 energy: -59.879429447168 gnorm: 0.001698783107 xtb: 6.7.1 (edcfbbe)
N            0.43430643650111       -0.95436508340839        1.83367678251165
C           -0.54308193291025       -1.16488202123676        0.75004840670726
C           -0.77828461819249        0.14626720252352        0.00765889322431
C           -1.63981965858885       -0.04099895179000       -1.23732243398512
C           -0.94554089945041       -0.69677730151582       -2.44230939157017
O            0.31996368793214       -0.70175301137895       -2.48615912571384
O           -1.66303195324857       -1.16823760687662       -3.33883190858510
H            1.38885724010006       -0.74929799857586        1.40717320890802
H            0.15638441908398       -0.14042800954260        2.41939430299043
H           -1.48746617191191       -1.52345279653225        1.16250080723713
H           -0.15595401888092       -1.91651981438142        0.06157802465396
H            0.17678679560613        0.57531114074411       -0.29284906211434
H           -1.27655526850998        0.85283431687743        0.67283424023183
H           -2.53438181943931       -0.63121589880337       -1.02822402550065
H           -1.97579473622134        0.93122697349673       -1.60908554513274
H            0.52053804827517       -1.78616208101273        2.41682780720527
O           -0.23091014686779        1.27487095827469        3.36486195240725
H           -0.54990731507854        1.20970836104862        4.26935221702559
H            0.43230966709525        1.97018845248158        3.33943861186795
O            3.82272623658887        0.66866052720870       -3.81438485207640
H            3.26978637524582       -0.07451587065087       -4.10050357612475
H            3.67068070934891        1.34509703312469       -4.48745573897058
O            2.39466029642789        1.43805288123105       -6.22195491334073
H            1.95624699526782        0.67754875315508       -5.80523319204828
H            2.62296075629801        1.15968161111027       -7.11381313434419
O            1.62380909299665       -0.91880928433852       -4.83932568811384
H            1.07745036458531       -0.83313752667960       -4.02479281287002
H            1.27348821297357       -1.67999230439790       -5.31215916237333
O            1.87252737514222       -2.57929149801084       -1.14876977646278
H            1.36745208999854       -1.93788877472087       -1.68050199046832
H            2.36405209002044       -3.12595921341629       -1.76615150187690
O            2.79492030224374       -0.64648675126207        0.60765566305332
H            2.69105056786743       -1.44930270497339        0.06536943991230
H            2.73486247823044        0.08527778092917       -0.04009436814278
O            2.30777063979426        1.00362544274885       -1.50879904326695
H            2.98297874338527        1.01278686297675       -2.21229904562727
H            1.57922991830399        0.47360420564247       -1.88055306947652
