37
 energy: -59.880802861891 gnorm: 0.000187512205 xtb: 6.7.1 (edcfbbe)
N            1.06970584177395       -0.74016491780568        2.22354474654536
C            0.20662262869320       -0.10270897923572        1.21169929524598
C            1.05284120367997        0.52635362100499        0.10310138061599
C            0.27949958098410        0.62594491754143       -1.20811337430046
C            0.13698964546692       -0.72244242527953       -1.93850472878635
O            0.93785669673642       -1.64274040319887       -1.65608026726039
O           -0.76598314341621       -0.81184721325964       -2.79927994390843
H            1.51735166080809       -1.58268462230865        1.76574897584118
H            1.79300401802122       -0.09520101513722        2.54325168191304
H           -0.42228742281892        0.65511425926467        1.67891950624780
H           -0.43810941138553       -0.86981876473255        0.77982019639171
H            1.92976788295391       -0.09527094368344       -0.08719681093031
H            1.38973170918313        1.52086174030443        0.39598346547331
H           -0.72367500239439        1.03126804688052       -1.06717469318181
H            0.80056833694108        1.28064873932307       -1.91196247503390
H            0.51830256736336       -1.06281574554123        3.04861238581096
O           -0.26786187883918       -1.57877348959016        4.48592561358548
H           -1.19768482772837       -1.82143043475739        4.48341974261055
H            0.20570114685920       -2.24736462537004        4.99062702360831
O           -2.12092599734861       -3.15044536856496       -3.05426315335546
H           -1.63314671869932       -2.30293597862559       -2.97172558917091
H           -2.43306828545248       -3.18800871987070       -3.96321906070592
O           -0.72923382318500       -5.07785327585566       -1.57536307518640
H           -1.32420529563528       -4.47057597922611       -2.04783146191537
H            0.15517313054118       -4.89908970859705       -1.94719911038010
O            3.72132496002176       -4.42495546943676       -0.62195499049509
H            3.11507958940933       -4.47053715630002       -1.37748563545997
H            3.24698389871306       -3.87093498636745        0.02473682561114
O           -0.29985240398001       -4.45683955926130        1.03270727254299
H           -0.17516188227678       -5.30476009836883        1.46878593594438
H           -0.53485900989808       -4.66842107508767        0.10402522746955
O            1.82141838196326       -2.82034930909028        0.70058434023991
H            1.09516058703663       -3.46238444075435        0.87240423890073
H            1.58353338114453       -2.41774566172301       -0.15386282150996
O            1.65857350143668       -4.08840698808245       -2.61290146757449
H            1.38413202982170       -3.18664703565377       -2.33709839184651
H            1.84103372341478       -4.03981193352360       -3.55507580363316
