58
Coordinates from ORCA-job 02_Aminobutyric-acid_zwitterion E -1433.303124220314
  N       1.246384     -0.210889      0.467138
  C       2.011194     -0.420359     -0.799333
  C       1.606152      0.582866     -1.865991
  C       2.493055      0.467325     -3.108772
  C       3.895511      1.022086     -2.901492
  O       3.995724      2.200715     -2.468523
  O       4.893042      0.294416     -3.185782
  H       1.596421      0.604418      0.995538
  H       0.238980     -0.069476      0.279645
  H       1.814475     -1.438968     -1.130825
  H       3.066909     -0.344978     -0.546609
  H       1.662928      1.597159     -1.465668
  H       0.566953      0.400467     -2.147043
  H       2.546938     -0.565253     -3.450793
  H       2.050241      1.056061     -3.915939
  H       1.366806     -1.017839      1.093484
  O       4.370483      2.540771      0.288594
  H       5.525192      3.186043     -2.748929
  O       6.426620      3.528729     -2.942118
  H       3.560926      2.435491      0.817219
  O       1.948246      4.029509     -2.988683
  H       2.658734      3.377069     -2.809398
  H       4.113680      2.439756     -0.648834
  O       2.461168      1.704506      2.259107
  H      -1.510936      0.726061      1.908176
  H       6.977417      2.877502     -2.474438
  H       1.901729      2.084867      2.948412
  O      -1.385058      0.847859      2.865241
  H       1.390032      3.610808     -3.657314
  H      -0.695290      1.518984      2.937161
  H       3.170749      1.245323      2.727805
  O      -1.580863      0.303331      0.043787
  H      -2.176516     -0.418775     -0.185056
  H      -1.788795      1.018946     -0.572998
  O       3.652730      2.344608     -6.412553
  H       3.204717      1.523826     -6.199578
  H       5.409189      1.067134      0.518967
  H       4.549491      2.247545     -6.028289
  H       0.230021     -2.781114      2.637567
  O      -0.704622     -3.023896      2.797922
  H       2.529356     -1.955172      3.039011
  O       6.061115      0.333173      0.543249
  H       4.071492     -1.309344     -5.819798
  H      -0.968735     -3.502826      2.000216
  O       2.010934     -2.304031      2.297283
  O       6.183674      1.929041     -5.262226
  H       6.361860      2.619455     -4.591393
  H       5.643825     -0.406336      0.059348
  H       7.056037      0.876851     -0.943668
  O       4.678850     -1.681354     -5.168475
  H       2.560900     -2.987115      1.879999
  H       4.725211     -1.008010     -4.460323
  H       5.896450      1.178654     -4.714311
  O       7.340601      1.078103     -1.859552
  H       6.579244      0.772364     -2.393911
  O       5.316029     -1.749342     -1.246133
  H       5.092616     -1.172313     -2.002351
  H       4.560532     -2.340594     -1.145270
58
Coordinates from ORCA-job 02_Aminobutyric-acid_zwitterion E -1433.303530150472
  N       1.249154     -0.197657      0.465973
  C       2.021140     -0.402167     -0.795158
  C       1.610028      0.595406     -1.865799
  C       2.492999      0.477511     -3.110893
  C       3.896964      1.028387     -2.905828
  O       4.003776      2.208986     -2.476332
  O       4.890410      0.292909     -3.188061
  H       1.592359      0.622046      0.990665
  H       0.243558     -0.068320      0.276752
  H       1.836566     -1.423880     -1.125155
  H       3.075073     -0.313345     -0.537032
  H       1.664366      1.610889     -1.469579
  H       0.570384      0.411065     -2.144271
  H       2.546703     -0.557030     -3.449671
  H       2.047748      1.063976     -3.919244
  H       1.370122     -1.004792      1.096078
  O       4.373811      2.554170      0.279289
  H       5.536726      3.180388     -2.756683
  O       6.438511      3.515038     -2.949361
  H       3.562833      2.455948      0.805747
  O       1.976234      4.063709     -2.998935
  H       2.677414      3.403033     -2.819719
  H       4.119287      2.452126     -0.657738
  O       2.447144      1.737841      2.248661
  H      -1.504811      0.629552      1.934409
  H       6.989158      2.859097     -2.478706
  H       1.882244      2.128364      2.928513
  O      -1.377077      0.716549      2.895553
  H       1.428153      3.662239     -3.683150
  H      -0.701571      1.398648      2.992008
  H       3.152001      1.278550      2.726665
  O      -1.572444      0.277158      0.056813
  H      -2.156720     -0.449013     -0.199680
  H      -1.794579      1.011612     -0.531131
  O       3.652897      2.340230     -6.414751
  H       3.195414      1.519997     -6.195284
  H       5.406639      1.072243      0.516188
  H       4.549932      2.236633     -6.032186
  H       0.208786     -2.766548      2.630001
  O      -0.726484     -3.000525      2.775672
  H       2.515007     -1.942304      3.050583
  O       6.054493      0.334235      0.544094
  H       4.061850     -1.313888     -5.823342
  H      -0.987894     -3.464433      1.971155
  O       2.005835     -2.290967      2.306691
  O       6.184939      1.910336     -5.266769
  H       6.368121      2.602946     -4.597328
  H       5.635891     -0.405344      0.062381
  H       7.056107      0.869074     -0.945956
  O       4.659353     -1.691528     -5.167015
  H       2.560184     -2.970626      1.900897
  H       4.711160     -1.015887     -4.461120
  H       5.894308      1.163603     -4.716595
  O       7.342346      1.066091     -1.862568
  H       6.581521      0.763931     -2.395595
  O       5.306742     -1.752386     -1.238915
  H       5.085643     -1.177227     -1.996520
  H       4.550296     -2.342809     -1.136218
58
Coordinates from ORCA-job 02_Aminobutyric-acid_zwitterion E -1433.303757806703
  N       1.256257     -0.189889      0.472208
  C       2.036077     -0.385249     -0.784321
  C       1.613269      0.604267     -1.858394
  C       2.489159      0.485021     -3.108088
  C       3.895056      1.031869     -2.908108
  O       4.008271      2.214278     -2.483447
  O       4.884391      0.289124     -3.188454
  H       1.587675      0.637210      0.991800
  H       0.248761     -0.079326      0.282800
  H       1.870145     -1.410596     -1.113418
  H       3.087112     -0.276602     -0.521726
  H       1.663661      1.621905     -1.467273
  H       0.572934      0.414924     -2.131291
  H       2.542390     -0.550778     -3.444254
  H       2.038857      1.069686     -3.915172
  H       1.382908     -0.995478      1.105027
  O       4.373331      2.568856      0.269956
  H       5.545554      3.172083     -2.764094
  O       6.449010      3.498516     -2.956698
  H       3.560518      2.478639      0.794055
  O       2.004162      4.095427     -3.006858
  H       2.695218      3.425470     -2.827944
  H       4.121303      2.464161     -0.666966
  O       2.424170      1.778590      2.237430
  H      -1.476270      0.592446      1.968624
  H       6.998030      2.839171     -2.483871
  H       1.851509      2.183047      2.902643
  O      -1.330893      0.683512      2.927224
  H       1.467137      3.712789     -3.709411
  H      -0.665860      1.377461      3.010203
  H       3.121758      1.322046      2.729113
  O      -1.574965      0.234724      0.090631
  H      -2.151889     -0.502190     -0.156336
  H      -1.819252      0.965429     -0.492887
  O       3.651539      2.338778     -6.416068
  H       3.184881      1.523442     -6.189544
  H       5.402821      1.078864      0.515189
  H       4.548374      2.226238     -6.035417
  H       0.184612     -2.792449      2.576728
  O      -0.752732     -3.030930      2.680728
  H       2.479051     -1.938420      3.082191
  O       6.046964      0.338065      0.547481
  H       4.052298     -1.317635     -5.825404
  H      -0.988473     -3.465829      1.853514
  O       2.000943     -2.286395      2.318987
  O       6.183794      1.890314     -5.270619
  H       6.372276      2.584214     -4.602829
  H       5.628131     -0.402894      0.068723
  H       7.055013      0.862775     -0.947576
  O       4.633979     -1.703770     -5.160164
  H       2.580210     -2.952208      1.928905
  H       4.691958     -1.025563     -4.457488
  H       5.889179      1.147107     -4.717938
  O       7.342298      1.054448     -1.864969
  H       6.581031      0.754575     -2.396800
  O       5.299764     -1.756864     -1.227952
  H       5.079243     -1.184597     -1.987211
  H       4.544103     -2.347970     -1.122670
58
Coordinates from ORCA-job 02_Aminobutyric-acid_zwitterion E -1433.304034259234
  N       1.267203     -0.170990      0.486867
  C       2.055246     -0.357484     -0.765200
  C       1.618203      0.620284     -1.844318
  C       2.483003      0.495317     -3.101087
  C       3.893592      1.033543     -2.911579
  O       4.017697      2.218249     -2.495933
  O       4.875801      0.280039     -3.189562
  H       1.583208      0.668383      0.996250
  H       0.256073     -0.089103      0.298521
  H       1.912473     -1.387093     -1.091844
  H       3.102187     -0.224553     -0.498613
  H       1.666333      1.641619     -1.461907
  H       0.576377      0.425190     -2.107999
  H       2.531208     -0.541967     -3.433592
  H       2.026399      1.078952     -3.905115
  H       1.403569     -0.970390      1.125925
  O       4.381760      2.591467      0.254402
  H       5.563586      3.156727     -2.780160
  O       6.470845      3.470555     -2.974483
  H       3.566499      2.515875      0.776236
  O       2.049363      4.135527     -3.019080
  H       2.726056      3.451649     -2.840324
  H       4.131126      2.481444     -0.682172
  O       2.397463      1.852546      2.219246
  H      -1.453624      0.505615      2.030587
  H       7.014868      2.807276     -2.499479
  H       1.817031      2.282049      2.861176
  O      -1.283968      0.588059      2.985680
  H       1.520782      3.774220     -3.739180
  H      -0.644386      1.306046      3.061259
  H       3.080509      1.399385      2.733497
  O      -1.590998      0.170283      0.150274
  H      -2.148192     -0.581995     -0.095751
  H      -1.873391      0.901797     -0.414707
  O       3.653220      2.339304     -6.420228
  H       3.171823      1.535432     -6.182898
  H       5.405263      1.089169      0.511814
  H       4.549361      2.210890     -6.043063
  H       0.153366     -2.818696      2.474521
  O      -0.786298     -3.063367      2.502239
  H       2.404617     -1.917094      3.139790
  O       6.043308      0.344366      0.549889
  H       4.037197     -1.325151     -5.826225
  H      -0.967260     -3.457357      1.641642
  O       1.985429     -2.264694      2.342452
  O       6.184233      1.858016     -5.280709
  H       6.381799      2.552832     -4.616090
  H       5.622615     -0.398595      0.076596
  H       7.057912      0.850246     -0.954417
  O       4.592550     -1.724398     -5.146418
  H       2.608899     -2.907944      1.983513
  H       4.661064     -1.041896     -4.449186
  H       5.883021      1.120354     -4.723846
  O       7.345079      1.032299     -1.873418
  H       6.580772      0.735743     -2.402609
  O       5.291547     -1.763669     -1.212340
  H       5.070914     -1.196042     -1.974288
  H       4.536416     -2.354430     -1.102056
58
Coordinates from ORCA-job 02_Aminobutyric-acid_zwitterion E -1433.304386252101
  N       1.274662     -0.153095      0.501633
  C       2.068760     -0.327409     -0.748354
  C       1.616249      0.638041     -1.831385
  C       2.470614      0.506683     -3.094747
  C       3.887310      1.032646     -2.914110
  O       4.023599      2.219558     -2.509534
  O       4.861552      0.266655     -3.185235
  H       1.568701      0.701461      0.998597
  H       0.260173     -0.108299      0.319274
  H       1.951173     -1.360562     -1.073498
  H       3.111153     -0.169399     -0.479268
  H       1.662139      1.663318     -1.458345
  H       0.573269      0.435463     -2.085544
  H       2.510509     -0.531410     -3.425207
  H       2.009953      1.092439     -3.894338
  H       1.429041     -0.945030      1.146272
  O       4.379952      2.615097      0.239447
  H       5.582098      3.136662     -2.794032
  O       6.495078      3.435314     -2.988056
  H       3.560426      2.556649      0.755998
  O       2.102402      4.179017     -3.037406
  H       2.760732      3.477742     -2.856410
  H       4.133348      2.498578     -0.697510
  O       2.348365      1.943757      2.187352
  H      -1.382909      0.452944      2.117431
  H       7.029522      2.767891     -2.509142
  H       1.758165      2.405388      2.796782
  O      -1.166957      0.555343      3.061016
  H       1.574104      3.834871     -3.766712
  H      -0.553476      1.298805      3.094803
  H       3.009805      1.497163      2.733691
  O      -1.604642      0.085729      0.249856
  H      -2.143621     -0.688448      0.036151
  H      -1.939812      0.801018     -0.307090
  O       3.666539      2.342586     -6.424895
  H       3.165946      1.554858     -6.177254
  H       5.396471      1.101689      0.514091
  H       4.559920      2.193728     -6.048855
  H       0.141934     -2.868266      2.307431
  O      -0.792080     -3.121965      2.228071
  H       2.299708     -1.904632      3.195740
  O       6.027609      0.353051      0.561139
  H       4.008297     -1.344428     -5.812893
  H      -0.883037     -3.478361      1.337071
  O       1.966259     -2.246964      2.355926
  O       6.189804      1.818744     -5.284719
  H       6.396183      2.513941     -4.623321
  H       5.604821     -0.391914      0.093774
  H       7.051247      0.832515     -0.951277
  O       4.544773     -1.750728     -5.122067
  H       2.647845     -2.855751      2.041657
  H       4.623667     -1.062637     -4.431578
  H       5.878483      1.087745     -4.724162
  O       7.340111      1.001711     -1.871464
  H       6.572560      0.709449     -2.399494
  O       5.269018     -1.769577     -1.183909
  H       5.050970     -1.208409     -1.950725
  H       4.512265     -2.357124     -1.068166
58
Coordinates from ORCA-job 02_Aminobutyric-acid_zwitterion E -1433.304672836105
  N       1.276223     -0.130903      0.509088
  C       2.067804     -0.304404     -0.743057
  C       1.612710      0.656125     -1.828129
  C       2.464132      0.515332     -3.092813
  C       3.886037      1.030106     -2.916639
  O       4.031532      2.217813     -2.519703
  O       4.854231      0.255775     -3.182496
  H       1.561660      0.731903      0.997396
  H       0.259647     -0.103758      0.331944
  H       1.954269     -1.338600     -1.065901
  H       3.109926     -0.142650     -0.476127
  H       1.662099      1.683664     -1.461343
  H       0.568915      0.452322     -2.078238
  H       2.493520     -0.523251     -3.421628
  H       2.006634      1.104494     -3.891234
  H       1.442877     -0.917301      1.157171
  O       4.388217      2.628070      0.229166
  H       5.600060      3.122566     -2.806380
  O       6.517233      3.411285     -3.001216
  H       3.565900      2.582232      0.743093
  O       2.140022      4.200851     -3.051767
  H       2.787200      3.488763     -2.868148
  H       4.142335      2.507496     -0.707783
  O       2.327361      2.010380      2.161231
  H      -1.370112      0.356926      2.180772
  H       7.043073      2.741613     -2.520080
  H       1.736413      2.496266      2.750296
  O      -1.137941      0.438119      3.122564
  H       1.606458      3.863142     -3.781234
  H      -0.549622      1.200797      3.167620
  H       2.970923      1.566038      2.729613
  O      -1.618521      0.039083      0.307617
  H      -2.134740     -0.745549      0.081582
  H      -1.988693      0.758461     -0.221499
  O       3.682018      2.345424     -6.429649
  H       3.168699      1.569879     -6.177268
  H       5.396962      1.110030      0.513989
  H       4.573256      2.183018     -6.054236
  H       0.151165     -2.865730      2.216609
  O      -0.779065     -3.113715      2.077371
  H       2.243153     -1.882725      3.220216
  O       6.023330      0.358406      0.566252
  H       3.985264     -1.360925     -5.798745
  H      -0.817885     -3.451685      1.174607
  O       1.956905     -2.223135      2.361236
  O       6.198073      1.791828     -5.289826
  H       6.410657      2.486836     -4.630951
  H       5.596381     -0.386627      0.102925
  H       7.049435      0.816350     -0.950637
  O       4.516780     -1.768327     -5.104487
  H       2.665964     -2.816316      2.074772
  H       4.601957     -1.076417     -4.418330
  H       5.879596      1.065509     -4.726946
  O       7.338670      0.975851     -1.872009
  H       6.567439      0.687519     -2.398602
  O       5.250067     -1.770032     -1.165644
  H       5.034972     -1.213104     -1.936584
  H       4.489175     -2.351274     -1.045303
58
Coordinates from ORCA-job 02_Aminobutyric-acid_zwitterion E -1433.305086788749
  N       1.275311     -0.109480      0.520382
  C       2.059740     -0.287097     -0.735816
  C       1.604723      0.668563     -1.823712
  C       2.455808      0.515426     -3.088080
  C       3.883093      1.019006     -2.915652
  O       4.035931      2.207560     -2.526031
  O       4.846484      0.238723     -3.176760
  H       1.547984      0.763425      0.997487
  H       0.256958     -0.103256      0.350504
  H       1.943426     -1.322483     -1.053807
  H       3.103356     -0.128275     -0.473188
  H       1.659190      1.698769     -1.465409
  H       0.560617      0.462616     -2.070721
  H       2.470798     -0.523331     -3.416025
  H       2.005414      1.110174     -3.886168
  H       1.461925     -0.887247      1.173494
  O       4.394851      2.631428      0.224133
  H       5.613159      3.106276     -2.814777
  O       6.533806      3.386510     -3.010994
  H       3.567584      2.600269      0.733356
  O       2.175355      4.212192     -3.056241
  H       2.810240      3.487993     -2.870890
  H       4.149676      2.507151     -0.712907
  O       2.286551      2.090680      2.119347
  H      -1.321938      0.296724      2.258316
  H       7.051092      2.714107     -2.529255
  H       1.694771      2.614904      2.673854
  O      -1.060458      0.384932      3.191599
  H       1.635058      3.882640     -3.785287
  H      -0.503080      1.171352      3.219125
  H       2.895922      1.649951      2.726472
  O      -1.623100     -0.024274      0.398216
  H      -2.111307     -0.829795      0.188397
  H      -2.042524      0.678724     -0.116218
  O       3.691149      2.357703     -6.423979
  H       3.161386      1.597153     -6.167010
  H       5.398179      1.113616      0.517599
  H       4.580591      2.177994     -6.052100
  H       0.172296     -2.869316      2.065981
  O      -0.745429     -3.098603      1.828178
  H       2.142944     -1.870821      3.253656
  O       6.022487      0.360173      0.574145
  H       3.963912     -1.382533     -5.781006
  H      -0.696608     -3.394986      0.910541
  O       1.937368     -2.205450      2.368568
  O       6.200536      1.768611     -5.292648
  H       6.419123      2.462548     -4.635316
  H       5.592639     -0.385286      0.113351
  H       7.046893      0.794986     -0.947474
  O       4.491576     -1.789931     -5.083594
  H       2.684846     -2.774231      2.131228
  H       4.581265     -1.094063     -4.401290
  H       5.876997      1.045271     -4.728877
  O       7.334884      0.944246     -1.870979
  H       6.559188      0.660248     -2.394917
  O       5.235664     -1.771776     -1.146139
  H       5.021630     -1.219903     -1.921633
  H       4.470820     -2.346667     -1.020530
58
Coordinates from ORCA-job 02_Aminobutyric-acid_zwitterion E -1433.304975501912
  N       1.261875     -0.043582      0.568758
  C       2.034605     -0.262401     -0.689376
  C       1.586720      0.676978     -1.796469
  C       2.428672      0.493007     -3.067089
  C       3.870001      0.966689     -2.907019
  O       4.042557      2.158951     -2.531366
  O       4.822577      0.172562     -3.164455
  H       1.492452      0.866280      0.991217
  H       0.242766     -0.100332      0.412965
  H       1.897328     -1.303675     -0.980958
  H       3.083754     -0.121703     -0.433137
  H       1.659981      1.714795     -1.467204
  H       0.540482      0.468647     -2.031386
  H       2.400388     -0.544655     -3.398354
  H       1.997180      1.107668     -3.861841
  H       1.503545     -0.776574      1.260039
  O       4.415698      2.603565      0.225417
  H       5.635068      3.049220     -2.823954
  O       6.560074      3.307038     -3.025757
  H       3.571888      2.621912      0.712151
  O       2.261848      4.220301     -3.025966
  H       2.863291      3.465418     -2.845689
  H       4.174085      2.474681     -0.711687
  O       2.132729      2.346195      1.942079
  H      -1.136259      0.175012      2.498878
  H       7.060339      2.618344     -2.548512
  H       1.545737      3.014302      2.335434
  O      -0.782413      0.307972      3.397919
  H       1.710788      3.924422     -3.760406
  H      -0.327999      1.160451      3.360155
  H       2.579422      1.933572      2.699418
  O      -1.607455     -0.198286      0.702324
  H      -1.997485     -1.073218      0.560362
  H      -2.179054      0.429007      0.232551
  O       3.680218      2.423404     -6.375853
  H       3.092932      1.710331     -6.100784
  H       5.405860      1.093762      0.530229
  H       4.564579      2.181039     -6.026022
  H       0.310644     -2.886504      1.486537
  O      -0.454622     -3.031615      0.860003
  H       1.632659     -1.845015      3.375552
  O       6.029180      0.336089      0.591838
  H       3.918796     -1.446161     -5.754453
  H      -0.031534     -3.054605     -0.036757
  O       1.802954     -2.140963      2.449413
  O       6.176797      1.710354     -5.302225
  H       6.415659      2.398361     -4.644202
  H       5.595338     -0.409553      0.130482
  H       7.040456      0.711121     -0.946134
  O       4.417135     -1.863204     -5.041443
  H       2.662694     -2.606755      2.468130
  H       4.520031     -1.160136     -4.366516
  H       5.846979      0.989834     -4.739845
  O       7.320346      0.834762     -1.877608
  H       6.531563      0.567014     -2.388525
  O       5.208647     -1.792948     -1.111234
  H       4.992400     -1.254581     -1.895556
  H       4.435855     -2.352755     -0.971565
58
Coordinates from ORCA-job 02_Aminobutyric-acid_zwitterion E -1433.304593828723
  N       1.240624     -0.005504      0.592726
  C       2.011069     -0.239445     -0.664472
  C       1.567203      0.692799     -1.779283
  C       2.403796      0.492917     -3.051866
  C       3.851760      0.950323     -2.897757
  O       4.038352      2.143160     -2.529445
  O       4.795454      0.144662     -3.152592
  H       1.465259      0.915422      0.992851
  H       0.221666     -0.076433      0.444659
  H       1.868653     -1.282644     -0.946695
  H       3.060967     -0.101429     -0.409668
  H       1.649659      1.733166     -1.460703
  H       0.519016      0.488780     -2.009289
  H       2.360475     -0.545218     -3.379760
  H       1.978041      1.111052     -3.847000
  H       1.490755     -0.723392      1.296263
  O       4.415700      2.597672      0.226194
  H       5.641403      3.016713     -2.824366
  O       6.569737      3.260636     -3.027873
  H       3.568071      2.634778      0.705331
  O       2.297608      4.234789     -3.021164
  H       2.881444      3.466326     -2.839941
  H       4.175649      2.466489     -0.710840
  O       2.094654      2.425645      1.892701
  H      -1.074235      0.158985      2.584030
  H       7.060634      2.565503     -2.549948
  H       1.518812      3.127126      2.238334
  O      -0.690212      0.306676      3.468111
  H       1.745278      3.953749     -3.760452
  H      -0.274428      1.177269      3.413779
  H       2.492962      2.028057      2.680436
  O      -1.602593     -0.231864      0.811121
  H      -1.956668     -1.123968      0.684478
  H      -2.219504      0.368847      0.366408
  O       3.675877      2.430179     -6.361230
  H       3.069511      1.736934     -6.078080
  H       5.393516      1.081977      0.538928
  H       4.555196      2.164570     -6.015869
  H       0.518026     -2.920297      1.183379
  O      -0.088853     -3.053290      0.407060
  H       1.331774     -1.888382      3.338621
  O       6.010518      0.319804      0.604656
  H       3.878597     -1.473678     -5.737482
  H       0.498145     -2.930010     -0.374926
  O       1.713091     -2.115889      2.462364
  O       6.161339      1.667163     -5.299334
  H       6.410847      2.353209     -4.642916
  H       5.571576     -0.424131      0.145663
  H       7.023000      0.669436     -0.938784
  O       4.360124     -1.895748     -5.015974
  H       2.586994     -2.511396      2.631430
  H       4.471726     -1.189526     -4.345645
  H       5.824042      0.951533     -4.735119
  O       7.301822      0.782253     -1.872025
  H       6.507884      0.522549     -2.379328
  O       5.170126     -1.809133     -1.088292
  H       4.956256     -1.274714     -1.876017
  H       4.392557     -2.361215     -0.942888
58
Coordinates from ORCA-job 02_Aminobutyric-acid_zwitterion E -1433.306528269018
  N       1.242568     -0.017949      0.564130
  C       2.019302     -0.258856     -0.688529
  C       1.584703      0.679252     -1.803629
  C       2.428276      0.488911     -3.072881
  C       3.871384      0.953608     -2.909442
  O       4.049465      2.144603     -2.530123
  O       4.821042      0.156076     -3.169997
  H       1.465018      0.902388      0.967190
  H       0.225713     -0.079677      0.405055
  H       1.867533     -1.299914     -0.972347
  H       3.069888     -0.132176     -0.428915
  H       1.664722      1.717327     -1.478312
  H       0.538073      0.476546     -2.040876
  H       2.390246     -0.547518     -3.407633
  H       2.005625      1.109748     -3.868159
  H       1.486000     -0.729858      1.276739
  O       4.420804      2.576243      0.230305
  H       5.645243      3.034779     -2.815229
  O       6.570788      3.287337     -3.015576
  H       3.570309      2.609406      0.705513
  O       2.285201      4.220055     -3.007637
  H       2.876225      3.456839     -2.830867
  H       4.184288      2.452069     -0.708326
  O       2.082249      2.409837      1.864599
  H      -1.057263      0.094165      2.548920
  H       7.066048      2.589404     -2.543022
  H       1.507030      3.120739      2.190215
  O      -0.676401      0.221571      3.437743
  H       1.736957      3.939426     -3.749190
  H      -0.267118      1.096573      3.406315
  H       2.454701      2.013500      2.666396
  O      -1.580840     -0.252897      0.765701
  H      -1.922613     -1.147454      0.617658
  H      -2.205334      0.349210      0.335560
  O       3.686389      2.472699     -6.355423
  H       3.079955      1.775122     -6.078115
  H       5.404490      1.069827      0.530726
  H       4.566768      2.206470     -6.013307
  H       0.332029     -2.859528      1.418140
  O      -0.374891     -2.979826      0.736593
  H       1.483246     -1.791343      3.394918
  O       6.027808      0.310648      0.590326
  H       3.928895     -1.449316     -5.773605
  H       0.117834     -2.994138     -0.110045
  O       1.739142     -2.092830      2.499476
  O       6.175195      1.710281     -5.303110
  H       6.419607      2.392541     -4.640185
  H       5.594228     -0.431361      0.122018
  H       7.038648      0.677374     -0.948047
  O       4.409756     -1.873335     -5.053027
  H       2.600129     -2.538094      2.595387
  H       4.512318     -1.171644     -4.376641
  H       5.843232      0.987155     -4.745896
  O       7.318505      0.799002     -1.880501
  H       6.526982      0.539510     -2.389325
  O       5.200348     -1.803932     -1.124725
  H       4.985349     -1.264896     -1.909041
  H       4.424954     -2.359863     -0.985441
