34
 energy: -56.708763580382 gnorm: 0.000553138473 xtb: 6.7.1 (edcfbbe)
H            1.09407426817357       -0.70757547926604       -0.33002531391918
C            0.15587572487050       -1.09740421522534        0.06772496038023
H           -0.94206749079352       -0.39966436598105       -1.57166721562853
H            0.08493771987414       -2.16150554188076       -0.15290429800159
N           -0.97067122914295       -0.37088108559180       -0.55307123993426
H            0.96693244453958       -1.36804962976956        2.05110107682139
C            0.12203547233615       -0.87370837917724        1.57204318175641
O           -0.02001298150274        1.48332108124521        1.09255779663802
C            0.16811831243856        0.61426109544155        1.96879394788952
H           -0.86034674228311        0.60679930410422       -0.20299422718424
O            0.36208394474288        0.86692515297718        3.18740321946124
H           -1.88790861799254       -0.74757537669494       -0.20538107454387
H           -0.78941664085430       -1.29104954172691        2.00346158856521
O           -1.33145793214810       -3.31998773247780        4.01994442529023
H           -1.22865954071092       -2.38324099727846        4.26592050202869
H           -1.94998522278094       -3.69804125174067        4.65248233745651
O            2.73103567301750       -2.53513740701998        2.89567452942785
H            3.60607450338778       -2.90608029038583        2.74863522053684
H            2.17416987258096       -3.27611464876978        3.21937438839125
O           -3.31855220074048       -1.31500304773924        0.46463365206502
H           -3.62352496653821       -2.22691724601760        0.47478696988827
H           -3.42333235848453       -0.97432523218664        1.37127997071219
O            2.48618925255398       -0.31217843868789        4.61013372191927
H            1.80581164276329        0.20565677424216        4.14782531171021
H            2.62372583883943       -1.10046005028778        4.05156071125545
O            1.07150062343109       -4.57779248952059        3.63359503092595
H            0.87617308051994       -5.27323529162205        2.99760276052327
H            0.22194175828381       -4.12059731472650        3.80129894762888
O           -3.48847870665415       -0.34140402460777        3.04816541463144
H           -2.73356691547478       -0.45195555540859        3.65238299137430
H           -3.85526926817509        0.52840660400273        3.22763305503480
O           -1.24744185424232       -0.62388318113849        4.70892442372118
H           -1.11458531072109       -0.37263381107415        5.62820396176580
H           -0.59817515310137       -0.09295838599741        4.19289027137896
