37
 energy: -59.867305476468 gnorm: 0.003069804834 xtb: 6.7.1 (edcfbbe)
N           -0.11723420134757       -0.39131182031631        1.55578709963729
C           -0.65378056431491       -0.94974242682536        0.30073934505355
C           -0.38029603621719       -0.02531940527217       -0.88050487022953
C           -0.80869155901010       -0.67192787674074       -2.20203682986503
C            0.16095811598879       -1.78637045022190       -2.63201549274811
O            0.15883993711040       -2.85170729201252       -1.97307807478211
O            0.90766763736324       -1.57140212555704       -3.61536417799224
H            0.92100925642990       -0.45280261573126        1.58085620185396
H           -0.39002508370458        0.58927760110542        1.64101769418355
H           -1.73038702339453       -1.09124715050169        0.40558054310224
H           -0.20427192476040       -1.92308148605965        0.10125558117368
H            0.68148143698670        0.22185029623737       -0.94195456323512
H           -0.93689845078195        0.90672038950354       -0.76488374590085
H           -1.80181497654801       -1.11462387801733       -2.09970268021074
H           -0.82690205924399        0.07700677048142       -2.99413197174441
H           -0.49954036403902       -0.92387446349571        2.38264190970285
O           -1.16950373786396       -1.71167038902877        3.67019184783353
H           -0.85276858112242       -2.59939666689123        3.85856858217460
H           -1.02474797279404       -1.18468538565534        4.47802560465926
O            2.54292103462252        1.81045151198780       -1.75185362557394
H            2.10312885102935        1.59802070070188       -2.59478090185452
H            3.41164345016278        2.15320780774449       -1.99099265181126
O            1.41008289075133        1.04015788522069       -4.17098253705990
H            1.24595562961648        0.08312335602484       -4.02192460134592
H            1.80379548809141        1.10278188864142       -5.05693309651214
O            2.33994550761000       -4.40479975651317       -2.52276689610319
H            2.67003183606362       -3.96009403469470       -3.30925970135754
H            1.51942833744095       -3.91516766919984       -2.28455967739630
O            2.38940853834867        0.94752339893509       -6.85309103708612
H            1.69078744575386        0.95999872182255       -7.51615464721813
H            2.95622553589614        0.19659219697571       -7.05556393850909
O            2.64086058726514       -0.65716610766421        1.81234596016678
H            3.24193894448194        0.08863725934383        1.90624417582106
H            3.08873891350586       -1.32894928558278        1.29254874962621
O           -0.63602356827391       -0.11082263906620        5.86944811904792
H           -1.29693444654562        0.50746043632536        6.19367319672143
H            0.22748217545640        0.29496270381148        5.99732310774587
