58
 energy: -95.529671222452 gnorm: 0.000394662585 xtb: 6.7.1 (edcfbbe)
N            1.23644666396925        0.33354552788135       -0.44714877170922
C            2.59658435278615        0.04752144642728        0.02573966613823
C            3.57592902521700        1.05885022539765       -0.56115799865386
C            4.97366487485192        0.88348393476616        0.04117202422891
C            5.91503843387405        1.89690247937224       -0.58989111231680
O            5.99524854156891        3.04569201380616       -0.08472375717412
O            6.54931765144376        1.56578694918231       -1.62434308487605
H            0.95021559914882        1.29433470719647       -0.17002185497868
H            1.19018530930588        0.26083204051947       -1.48149990100900
H            2.88605553602166       -0.95781447029741       -0.27977416346545
H            2.62980126258327        0.10015068891310        1.11448746519413
H            3.23220167588116        2.07201514373299       -0.34870663302360
H            3.64050833036710        0.93328562745540       -1.64325136342649
H            5.34810669256839       -0.12025763291015       -0.16114383996559
H            4.93762836574815        1.04933436268030        1.11818765927191
H            0.51615171451941       -0.32737116463123       -0.05403266191768
O            0.32717708401079        2.85130954180470        0.33567398545996
H            0.43967536524266        3.01216777953199        1.27685472123881
H            0.87284727582391        3.52726036664299       -0.11104121771576
O            2.22321467356389        4.62394623720436       -0.48131227060964
H            2.77931811955892        4.46053377391703        0.30448138685965
H            2.85761787425911        4.75704028827055       -1.20096991408142
H           -1.06016913204190       -1.50229386157430       -0.63737925893710
O           -0.92163858664002       -1.13109636245740        0.25603142385074
H           -1.49715398231442       -0.34708011153202        0.30445996368387
O            6.38309254912662        3.37837730612366       -3.72346831935319
H            7.26208514580947        3.62528176422261       -4.02644123837395
H            6.51603853566207        2.72609652224860       -3.01076100746318
H            1.82143623172275       -0.29909124882546       -3.64411372394058
O            1.00041216903752        0.01231645907721       -3.21753916616453
H            0.70706272760362        0.78040281974243       -3.71598919142020
H            5.05369036711727        4.43552640335707       -2.78920451252039
O            4.63525631099311        4.72786106415385       -1.96374754102145
H            5.14958479481758        4.29413953827017       -1.26513746423347
H           -1.32462546053060        1.99509942833685        0.10559875186282
O           -2.09267103523466        1.40294232245779        0.03858743103961
H           -2.62942438303069        1.73407539830784       -0.68575385094941
H            6.42640775962953       -1.27973622244751       -2.92829387562206
O            5.61535826271838       -0.76668047239672       -2.85776194205661
H            5.88717910639940        0.08324572578161       -2.46617649230537
H            2.74137663158422        0.23603314239181        4.11594138067922
O            2.94413124299740       -0.31517302686784        3.35463108579903
H            2.64107302607637       -1.20398113410203        3.56419486499605
H            3.69033259988567       -0.24375388957356       -5.24115393281884
O            3.35136357295672       -0.66093592963744       -4.44428619548759
H            4.11862559830309       -0.79044506199171       -3.85937803936231
H           -0.24014436997461       -1.26171238454068       -2.75110694178589
O           -0.84484452395523       -1.93417655290131       -2.38448517140310
H           -0.44909109081610       -2.78701806862334       -2.58110495529489
H            4.70000133048562        3.57878576961646        1.03461970248919
O            3.93951319425289        3.88962566906730        1.56168011898015
H            4.29719649754492        4.43529438878075        2.26708089282093
O            8.52065614300012       -0.45391862706605       -1.89201862996395
H            9.38632583885392       -0.18857431001019       -1.56875930921664
H            7.93745376325686        0.31139424742625       -1.76903847406283
O            8.49209898448193        3.87960400658117        0.90007360846482
H            8.48036554219422        4.84260026488916        0.90309652432971
H            7.63597149770238        3.60306706248568        0.53267655252056
