34
 energy: -54.792182537179 gnorm: 0.000258775161 xtb: 6.7.1 (edcfbbe)
N            0.74462583910028        0.23080186080762       -0.40822686988555
C            2.15892422132469       -0.17612136475813       -0.46075220611297
C            2.92802456485172        0.72348868032611       -1.42233946589246
C            4.43401390496603        0.50001114623660       -1.33845076773122
C            5.24545982131504        1.56972617814522       -2.09012846376441
O            4.87397372971100        2.76531292435637       -2.01061294815355
O            6.25672702396284        1.18196518612004       -2.71543267227912
H            0.67472943263190        1.21864191946655       -0.07842668562761
H            0.32417254059321        0.18299865921441       -1.35431247018204
H            2.22791256881571       -1.21467223345014       -0.78447740421047
H            2.58991523621042       -0.09393420436826        0.53739149308526
H            2.73226726999428        1.76662786208655       -1.17800222629874
H            2.59838501761122        0.55186480483247       -2.44815031797694
H            4.73086448138374       -0.47136892684803       -1.73671773861935
H            4.76657225926532        0.55907539399443       -0.29810226239279
H            0.21245102856047       -0.38351653742253        0.23711515402277
O            0.69851393624347        2.86998965592377        0.42522380691854
H            0.72917977936961        3.15178530007819        1.34372282424750
H            1.40537639613619        3.35582159223603       -0.03248566166551
O            2.83676046179856        4.18865021238583       -0.78515710494627
H            3.59359143437065        3.71249702401630       -1.17463343680130
H            2.80326030667986        5.03753663219684       -1.23485725907825
H           -1.23648530211646       -2.08393867873259        1.11829338752482
O           -0.54212090498916       -1.47224711330440        1.37872398400324
H           -0.73300490518239       -1.17218204938539        2.27186511300310
O            7.93635060475821        2.67130146101035       -4.25602282258050
H            8.81473353386395        2.45861160744495       -3.92451072295859
H            7.31658325766269        2.10764202574385       -3.74091615732852
H           -0.89094312830736       -0.62119213279729       -3.30387919012624
O           -0.37301857664469        0.12116905888245       -2.97940452985956
H           -0.73875970525902        0.92320319593284       -3.36169503295079
H            6.95691528364456        4.26695266308380       -3.79707868107914
O            6.30534494047106        4.78512893889610       -3.29688330586640
H            5.78452246058715        4.10664814412075       -2.82226885181232
