34
 energy: -44.596103529099 gnorm: 0.000416776139 xtb: 6.7.1 (edcfbbe)
N        0.9188772782     -0.1937156398     -0.4662222271                 
C        2.3899496939     -0.2925530626     -0.4008853427                 
C        3.0410714445      0.7122338302     -1.3443549089                 
C        4.5624569913      0.6460058751     -1.2907384425                 
C        5.2259309764      1.8289278526     -2.0336903339                 
O        4.6187846725      2.9179109790     -2.0667219127                 
O        6.3542478162      1.6129175007     -2.5354908736                 
H        0.6114411676      0.7756419668     -0.2386351637                 
H        0.5907381484     -0.4132221058     -1.4082561988                 
H        2.6978870671     -1.3035035345     -0.6690496507                 
H        2.7119211612     -0.0939601526      0.6208382148                 
H        2.7528193591      1.7312089500     -1.0808305682                 
H        2.7274131709      0.5347778175     -2.3747491364                 
H        4.9567607021     -0.2743099940     -1.7236746449                 
H        4.9158858718      0.7140256728     -0.2582661232                 
H        0.4813768240     -0.8550294547      0.2149734360                 
O        0.0471424951      2.3974071442      0.0443846842                 
H        0.2885813913      2.9504801743      0.7920933931                 
H       -0.1585654617      2.9801866727     -0.6912317936                 
O        3.1512298122      4.9349663403     -3.3570206633                 
H        3.6511504322      4.2392683670     -2.8991387361                 
H        3.8137986606      5.4878323789     -3.7814175849                 
H       -0.5978980968     -2.7605974206      1.0897901486                 
O       -0.0996263319     -1.9810616211      1.3504893760                 
H       -0.4394520416     -1.6806892771      2.1983048177                 
O        8.0510161823      3.3314256278     -3.8278986961                 
H        8.6847303671      2.7001921664     -4.1842642848                 
H        7.3946143443      2.7880690612     -3.3420152023                 
H       -1.9492467354     -0.0711433108     -1.4521872468                 
O       -1.5541606975      0.1451151943     -0.6035324456                 
H       -2.2423628566      0.0699155498      0.0628157754                 
H        6.5813624986      4.5770064726     -4.1038735990                 
O        7.0899469000      4.8774807997     -3.3461690290                 
H        6.8959956060      4.2850680662     -2.6149645304                 
