37
 energy: -59.873891357944 gnorm: 0.000139616351 xtb: 6.7.1 (edcfbbe)
N            0.56554490152429        0.81982587181474        2.12234751757986
C            0.58814882681565       -0.20769066295516        1.06170515719640
C            0.53221246603315        0.43540618537535       -0.31798341995902
C            0.42494540152334       -0.64581113884764       -1.38316718284055
C            0.38948013169923       -0.11807317335415       -2.82200394217935
O            0.63369968153814        1.07362800355743       -3.06066811144598
O            0.09588341463675       -0.97539002027589       -3.71500326072388
H            1.40192773087337        1.43108553175644        2.05293893591883
H           -0.27979027691929        1.41335634801884        2.01245089335377
H           -0.26711057664961       -0.87566484052414        1.17824966268708
H            1.49590405546904       -0.80418227220102        1.14669517385038
H            1.42102368394568        1.03667785756630       -0.51402579372356
H           -0.33589572875264        1.09067836102471       -0.39831911552811
H           -0.47979586533696       -1.23752387985106       -1.23507052919851
H            1.27488030889891       -1.32919863307936       -1.31974048577972
H            0.54628088939278        0.38103907117825        3.04422967412878
O           -1.73746873741664        2.37963695153227        1.79747520873981
H           -1.79482495642896        3.33596639605924        1.72348872317316
H           -2.62817323009521        2.03651435397133        1.90762746717338
O            0.17848875521947       -3.54068748969729       -2.94846594518257
H            0.17484702636327       -2.59468742912483       -3.23694849973851
H            0.33453311843728       -4.06013967003615       -3.74281927027325
O           -2.61174628261706       -1.38876298968977       -3.91906174628274
H           -1.64859122680260       -1.23069877482691       -3.94966246491901
H           -3.02869459400495       -0.58177629004159       -4.23447779225303
O           -1.28975296973124       -2.84265169103556        0.84290871970015
H           -1.85104948881669       -2.97799942446498        0.06289511195539
H           -0.43064026981259       -3.22476593333606        0.59073374186961
O           -2.35257223100348       -3.22807434792079       -1.76284345210257
H           -1.49451282985212       -3.49701505858547       -2.13808081456656
H           -2.70428266580790       -2.59982169779770       -2.41100920737995
O            1.09779592126197       -3.88565772817634       -0.30158834951599
H            0.81859202292544       -3.76173846238581       -1.22429261698656
H            1.29392433341460       -4.82249290395043       -0.20347120758682
O            2.85386967383556        2.43341442748250        2.00833251702182
H            2.86527512724581        3.35998458336738        1.75525668306617
H            3.76475345897417        2.13825356940220        2.08814702076105
