34
 energy: -56.711908555708 gnorm: 0.000353094047 xtb: 6.7.1 (edcfbbe)
H            1.16761060312408       -0.12265899376992        0.62292410059261
C            0.10367702535285       -0.24572446701662        0.41706757075433
H            0.39360814714545        0.17827620933329       -1.62857874845898
H           -0.12275803983697       -1.30938903994020        0.33691867679962
N           -0.22918192942949        0.45339988188886       -0.83641885156467
H           -0.53597018103496       -0.20886745390990        2.47715341611671
C           -0.70342548622993        0.35394753127851        1.56193864203089
O           -0.07799674232691        2.55290315210116        0.84269995926120
C           -0.37617718584198        1.83366657642749        1.82851421760783
H           -0.13030836770040        1.46280171858536       -0.61301755824312
O           -0.44950310284271        2.25135031430075        3.00507959426886
H           -1.21708375764301        0.26788629141275       -1.09516653924450
H           -1.76960105443740        0.30460016396836        1.32887682416921
O           -0.80670188709809        0.51296644586585        5.04649880257873
H           -1.54062805970363        0.87110863114167        5.55456296934398
H           -0.63263936395214        1.16687271782637        4.33161246067703
O           -2.91466476420609       -0.01073217754967       -1.48112628406197
H           -3.17500181945831       -0.87142579065343       -1.82372909435189
H           -3.37664118619441        0.65948939864433       -1.99304767979007
O            0.79470880919160        1.63012747339969       -5.03268356261440
H            0.19441731713468        1.44018452216783       -5.76028475949809
H            0.70848538072029        2.56501073632318       -4.82194999070802
O           -0.48153074771981       -2.15158591820863        4.31290363795957
H           -0.64725005483083       -1.23313685192692        4.59478511939540
H            0.29008020056915       -2.44217732546646        4.80869711687070
O            0.45269188251139        5.26706992741935        0.90303709532658
H            0.27208072461672        4.30467806807151        0.86060785802296
H            0.40378702902042        5.49681277952869        1.83520604853612
O            1.33013085762521       -0.19936790818571       -2.99857303646081
H            1.14097754321199        0.41416543869228       -3.73054958759878
H            2.28590694408028       -0.28174202830533       -2.95026873876820
O           -0.92530566085104       -3.10237967156067        1.65910103461288
H           -1.73712843663876       -3.61532889513766        1.71098785323563
H           -0.75292163630323       -2.78886845675716        2.56121943315837
