34
 energy: -56.706735010495 gnorm: 0.000959203338 xtb: 6.7.1 (edcfbbe)
H            0.34821049239723       -0.40743382468435       -0.71465093346449
C           -0.55962457976919       -0.26109124062902       -0.12907893121624
H           -1.33145414033660        0.76815590239308       -1.77806167563664
H           -1.16471842906186       -1.16752521192763       -0.16368867502136
N           -1.30854025509026        0.86103409925669       -0.73023681470497
H            0.38925058876145       -0.73991088628562        1.75794494566457
C           -0.18108618860851        0.07138755070760        1.30944800955841
O            0.38583480844403        2.31749718310421        0.66347632164479
C            0.66559958747213        1.36568437202507        1.43915643458972
H           -0.77029475156225        1.71313418308371       -0.42695569452986
O            1.54399317859648        1.39124688815211        2.31986817023091
H           -2.25699832262359        0.91227934936764       -0.36040468115197
H           -1.07440650622132        0.23404392271805        1.91636480625562
O           -1.36096594721248       -3.79562808031899        2.35253923705980
H           -1.59793794636650       -3.37772799502537        3.18413697404694
H           -0.40328705619380       -3.64470949634611        2.22849889869405
O            0.81285692566526       -1.47900471427990       -3.03007096850190
H            1.56788119271146       -1.74411191320058       -3.56071470462557
H            0.64785602881236       -2.20683798605059       -2.39531480185783
O            1.72317913307396       -5.51451805771661        0.08659629140458
H            1.21992267115621       -6.33338025068281        0.08341888519264
H            1.31075453889576       -4.93070697002662       -0.57924387253585
O            0.42361361849770       -3.34052576656239       -1.05415251422259
H           -0.53988458326765       -3.34643105782693       -0.86698103988939
H            0.81088431447472       -2.92411790131260       -0.27314207125763
O           -2.15431107836621       -3.16455615884714       -0.19213214611977
H           -1.98248052207254       -3.42251815226331        0.73563644552194
H           -2.91475362197083       -3.67210198282537       -0.48683431269588
O            1.32332072088135       -3.40555937633320        1.81829937427209
H            2.04415448004047       -3.24990094832407        2.43294938155415
H            1.55425754310513       -4.22170338070254        1.32676583523843
O           -1.13031795546858        0.43797842712461       -3.40362382699481
H           -0.69216105265692        1.12776613373013       -3.91013287827017
H           -0.50714188609018       -0.31233465957433       -3.36165246822387
