37
 energy: -59.864214560524 gnorm: 0.000447601588 xtb: 6.7.1 (edcfbbe)
N            0.55910824409747       -0.08999250891319        1.37332518875734
C            0.58704519136009       -0.52969392185845       -0.03794846340715
C           -0.26864017544324        0.39263813096057       -0.89668228342433
C           -0.27666546285995       -0.05875606867715       -2.35147742503479
C           -1.11548817032664        0.83140304106913       -3.27419119451115
O           -1.77324323015071        1.78099255405232       -2.79176924943019
O           -1.10396508094789        0.54976446308231       -4.49941063193011
H            0.99219527849440        0.83323429048372        1.45589342548069
H           -0.41006250607786       -0.02592567268717        1.69683255767520
H            0.20567612214488       -1.54806930429224       -0.10013123577925
H            1.61854143562322       -0.52226802054359       -0.39154705976964
H            0.11082567127731        1.41458690761917       -0.85553209022739
H           -1.29781827240110        0.40361304140155       -0.53360566801593
H           -0.68274595753939       -1.06849058199027       -2.45109323003922
H            0.73271859599177       -0.07864992389226       -2.76699850406678
H            1.08033354956252       -0.77592340200562        1.97124931027550
O            3.75914323342591       -0.42811473077488       -0.94875951842119
H            4.28110641904320        0.33599024065407       -1.20873001757843
H            4.14938521228991       -1.19681689044191       -1.37373949580914
O           -2.43902944852066        2.08708327894465       -6.37035562287505
H           -1.93108854806965        1.59725619059131       -5.69189730799624
H           -3.27381001384294        1.61569750344701       -6.45625181597997
O            0.98447245644625        0.48100783844376        6.50761889243432
H            1.15421501628574        0.63796652499755        7.44034341627315
H            0.41829016465456        1.19430096753085        6.19637593896067
O            0.81606508529646       -1.23142261248093       -5.36525344801542
H            0.11139370908145       -0.61350734446758       -5.08612789229933
H            0.83694944983246       -1.18467032680313       -6.32603102458962
O           -3.48122954986611        1.45823973325226       -0.60097740541673
H           -2.95362577089557        1.60234616228529       -1.40566110819282
H           -4.04911809717563        2.22972660603630       -0.51438072546188
O            1.86482299858857       -2.01967211706929        2.80055373793539
H            1.40855818701846       -2.67045686805133        3.34073778473722
H            2.75644449068653       -1.92041954381935        3.14452766806013
O           -0.41314732919104        3.80005396594027       -1.43371881095551
H           -0.71600402516240        4.65383561731199       -1.75569301744308
H           -0.90719987265230        3.13287978037619       -1.94143367388662
