34
 energy: -56.716552016819 gnorm: 0.000328765278 xtb: 6.7.1 (edcfbbe)
C            0.46832388089297       -0.32864266602010        1.25265613281932
C            0.39989686647553        0.61659558226818        2.47986556949433
O           -0.07373616181903        0.16647119747115        3.53740134381327
O            0.84401313866912        1.78163473534177        2.31952004533923
C           -0.21132214498775        0.29568973032754        0.04124593131239
N            0.26891786089957       -0.30134428852061       -1.21921900866912
H            1.52940673211502       -0.47964654648855        1.04660485234650
H            0.01962514092231       -1.27746205852842        1.54485881009316
H           -1.29266263998437        0.18308521368337        0.12775093701430
H            0.02197300606801        1.36086662815159        0.02970387726169
H            0.02354629881923       -1.28884341838152       -1.27597983789679
H            1.33342705844553       -0.20608042053519       -1.25884630756162
H           -0.12610891196774        0.22430895303512       -2.03214088568426
O            2.39646812253878        2.45333403056442        0.24312478914364
H            1.81782225498794        2.22290650539465        1.00937816759131
H            3.07721995768782        3.03199542789801        0.59483293491273
O            3.05712447739004        1.34740726854008       -3.61858785500217
H            2.58853496883433        2.12264378771395       -3.23893411418250
H            2.41940228809400        0.96422372711372       -4.24599413478517
O            1.41346142968982        3.10635476657232       -2.34151145666542
H            0.61139572889445        2.58394690182539       -2.51981465213336
H            1.64834992190810        2.94326774205066       -1.41332681793849
O            1.15018670472573        2.50942975493692       -7.27439179960871
H            0.79098084992596        3.37123442941350       -7.04046152317383
H            2.01681693542010        2.66064229213728       -7.66312023633199
O            1.00155888093510        0.51935313042874       -5.36373865412290
H            0.95997822629776       -0.33900333064489       -5.79524772018431
H            1.03283501135925        1.19060459079600       -6.07115884810123
O            2.89986929519095        0.13401562372099       -1.22247665520315
H            3.09747345853829        0.47422308288704       -2.12765105086332
H            2.88458025037676        0.92869591246059       -0.65936644856816
O           -0.57938947894390        1.29343170221576       -3.26463265477815
H           -1.47059319186836        1.44737770585742       -3.58854278640049
H           -0.03571321637680        1.02265430634110       -4.03290094325359
