37
 energy: -59.877809699282 gnorm: 0.000132903940 xtb: 6.7.1 (edcfbbe)
N           -0.07808886983038       -0.10648055503906        2.40287370587177
C           -0.18917433845932       -0.77382800147560        1.09288645880311
C            0.24489194033693        0.15914846015377       -0.03131683730417
C            0.15513361750640       -0.51298880581637       -1.39482526673038
C            0.55276258050262        0.42924527038196       -2.55390718201320
O            0.66054292801170        1.65448914051223       -2.30225340612844
O            0.73480288986662       -0.09228565254121       -3.67339203317150
H            0.88289251669047        0.19113527631475        2.57294085006247
H           -0.69680045839127        0.73856544514777        2.42347699297591
H           -1.22653735255900       -1.07459582697202        0.94495690387837
H            0.43668261202832       -1.66647924277961        1.08117405804198
H            1.27592453909528        0.49011276028189        0.11172334608443
H           -0.38036592109930        1.05179437623449       -0.06261333970807
H           -0.86544861584688       -0.84064852614703       -1.60712240132831
H            0.80496327458213       -1.38765223947286       -1.46479310644796
H           -0.38609452267127       -0.75505223892472        3.17034888601419
O            1.47920116990994        3.04344854199463       -4.49329493891714
H            1.53481169219668        2.32641283842946       -5.13292041483943
H            1.17546493060462        2.60738799518799       -3.66228641558880
O           -1.77905567309556        2.05152963166994        2.50908211924085
H           -2.63364197834177        1.56132904292770        2.44375684877997
H           -1.79626352046465        2.72420701333914        1.82488578091194
O           -1.17945935414374        0.00935542371193        6.35874643840765
H           -1.96585067521930        0.05870811428618        6.90797153427779
H           -1.06985678623458        0.89881652539067        5.96486980812047
O           -3.98766196554404        0.56122618165809        2.35161505199504
H           -3.64373573478582       -0.35476535280509        2.30636848791845
H           -4.63835500871535        0.57179771144905        3.05905744672517
O           -0.91817176982394       -1.78501462767265        4.38688695037958
H           -0.33217530046692       -2.47625885820817        4.70606464050755
H           -1.04242071608138       -1.15684348457152        5.13553825546232
O           -2.92311625614959       -1.95487611320582        2.44851353717433
H           -2.30727678001390       -1.98123947322399        3.20413021060056
H           -3.38661444473159       -2.79477369395612        2.43395534435796
O           -1.02955885752965        2.44594941749428        5.14028869978321
H           -0.32239920428223        3.09531588783761        5.13686033209381
H           -1.34959058681614        2.37210563833116        4.22050965368000
