37
 energy: -59.873074671149 gnorm: 0.000276217122 xtb: 6.7.1 (edcfbbe)
N           -0.32672927513596       -0.70376478087289        1.52266029592465
C            0.88219339573083        0.11210530695764        1.31552206110502
C            0.61824041906086        1.26146206120640        0.34252967420895
C           -0.18633377721230        0.86844590125530       -0.90656134543129
C            0.28320008919139       -0.44970804794639       -1.55918838967411
O            1.01109956938644       -0.37735896146857       -2.57134597758128
O           -0.11751339653128       -1.51561530868165       -1.03235106074522
H           -0.18163822544405       -1.41873190987386        2.25841337353918
H           -1.10676437503247       -0.11744188443936        1.85234693314278
H            1.20048062198695        0.53009357560864        2.27084624647697
H            1.66442488007102       -0.53309028187283        0.91364182046471
H            1.58088035589884        1.66452199204785        0.02699159018407
H            0.07444360657026        2.05561775838633        0.85557392352030
H           -1.24249637763021        0.74570951579247       -0.66017149561841
H           -0.09638944403978        1.65557199283924       -1.65668337564830
H           -0.53526211847905       -1.16685994108764        0.60588962991351
O            0.26404561892485        4.47285782239095        4.90262059261186
H            0.42348376022441        5.19246382309888        4.28454802813762
H            0.59253166261941        4.75229397866268        5.76249088321444
O            1.51248994063163       -2.12236668043725        5.55690595146968
H            0.70067307847510       -2.12916354469949        5.01008231767302
H            2.15343829004684       -2.66323388985502        5.08692121322986
O           -1.78695977818001        0.42719658759495        3.62955234663905
H           -2.50989373697335        0.91684575327855        4.02686749813722
H           -0.96510457008534        0.93946267870290        3.81957888549664
O            0.49378132153326        1.75912306384704        4.10062037692031
H            1.00375918735766        1.33567077750287        4.82037768353745
H            0.39186671552801        2.68635847784592        4.36340843991395
O            2.87157341665586       -2.16484907669671       -3.52488577843742
H            2.18699614422640       -1.57828214201368       -3.14273792533238
H            2.92061355358701       -1.92380657420680       -4.45546869491784
O            1.99994573204216        0.53089129913042        6.03829958345195
H            1.80847057378403       -0.42707250135960        5.96802453196064
H            2.95688143471664        0.61688425930321        6.01220211728157
O           -0.69347680648295       -2.07728371332952        3.91704312299280
H           -1.16738496676612       -1.22650501054378        4.01835497272337
H           -1.35507852022103       -2.77195537610909        3.96759094947615
