34
 energy: -56.711374790205 gnorm: 0.000288787588 xtb: 6.7.1 (edcfbbe)
C            0.35888489252715       -0.36285095986042        0.45721284156445
C            0.76487586964797        0.74273645343880        1.47282999426953
O            1.18360106839439        0.34324044662983        2.58221755463200
O            0.63824899944318        1.93397476777830        1.12072607000570
C           -0.10086519115802        0.20871636191222       -0.87251674659702
N           -0.45689658470805       -0.86357940462342       -1.81608245465275
H            1.22385193223475       -1.01636998297799        0.34052463853644
H           -0.43087965156434       -0.93838609378020        0.94169145330067
H           -0.95410505950002        0.86360004034568       -0.69377903953859
H            0.69875998243503        0.82098426128897       -1.28966608235847
H           -1.14991923514511       -1.50043160134032       -1.39647223420212
H            0.39686135537238       -1.40209401107260       -2.08945397826949
H           -0.85718045005231       -0.48142861740047       -2.70270635017231
O            0.09842067578054       -4.20218180311367       -3.36237426407745
H            0.17738599090244       -4.84471998557487       -4.07072558697088
H           -0.76030886650478       -3.73278034052213       -3.51143522953160
O            1.73920599093802       -2.08504294381172       -2.95432211523387
H            2.34347696639931       -2.37588208821681       -2.26607967140305
H            1.21930208706986       -2.88241984637281       -3.20196067899912
O            1.27313766312588       -3.84813241904150       -0.76494370756579
H            0.78780100061118       -4.17860578175526       -1.53952818828135
H            1.25696867466621       -4.54703882283910       -0.10902504904795
O           -1.32734202190406       -0.20201836140783       -4.33129752850210
H           -0.41100736432441       -0.20358624272628       -4.68819641633274
H           -1.74072650762503        0.61228928679956       -4.62551465972625
O            1.26742368650661       -0.33370484789414       -5.04415059141562
H            1.59456898737091       -0.74548678071954       -5.84795923136876
H            1.59409164405288       -0.87579646709066       -4.30290670901882
O           -2.16394022228990       -2.82755940488828       -3.74568090483603
H           -1.94913666632408       -1.94955870301273       -4.10509806633346
H           -2.52753201508622       -2.66356463511215       -2.86033964535746
O           -2.85091599808950       -2.25240950811527       -1.04687338424976
H           -3.03281941890305       -2.99990501610089       -0.47124592925598
H           -3.53116821429704       -1.59352294880959       -0.87912310897081
