34
 energy: -56.706092572099 gnorm: 0.000534673373 xtb: 6.7.1 (edcfbbe)
H            0.19968803187591       -1.48759144239871        0.00689540411880
C           -0.52293312959283       -0.67128530455528       -0.06412626746225
H            0.21204735752900       -0.21862748120890       -1.97607101067201
H           -1.48845744506203       -1.07768496117849       -0.36798644414923
N           -0.04512560522195        0.28571416770434       -1.08182011626423
H           -0.95172910406921       -0.67757887644284        2.06253030638665
C           -0.63664957892964        0.02091795008710        1.28878337604203
O            1.46551953320812        1.13355215409627        0.89824343394273
C            0.69278739043403        0.66567364362684        1.77299282431586
H            0.77649516885381        0.75061859283203       -0.62314135190759
O            0.88687492436202        0.70829916854388        3.00121870630634
H           -0.75216007637983        0.99419340796179       -1.27652483311589
H           -1.36904085030322        0.83199062345861        1.25279845766852
O           -1.78990343474428       -2.71618868484621       -2.52202440063096
H           -1.49740846409465       -3.48700768862351       -2.01013179381609
H           -2.49490725689101       -3.01875232986434       -3.10062685255143
O            1.23896217922075       -3.37154629946267       -0.50973891350302
H            0.51185270190806       -3.96899774761187       -0.74721322834251
H            1.76931118225378       -3.27295776236370       -1.31600157867961
O            0.36665116977175       -1.21973073146954       -3.26528308552891
H           -0.40723412462516       -1.78828481162575       -3.06961004363320
H            1.15301247708539       -1.76975871073966       -3.06296806772636
O            0.88471901923428       -1.11002121781014       -5.95150299353026
H            0.04761046408483       -1.11704389810230       -6.42320325089901
H            0.66506934356105       -0.99384987555559       -5.00170782350378
O           -1.05508960943946       -5.01673952462515       -1.04548024662682
H           -0.92386888987980       -5.88978453171347       -1.43053353538136
H           -1.47961863599368       -5.14069612646108       -0.19104102896569
O            2.60449519956038       -2.72829310868866       -2.92470050115934
H            3.40593638992912       -2.21129176315999       -2.80633011880184
H            2.62590184390447       -3.07188515079666       -3.84365520684516
O            2.57557516418392       -3.23467376206053       -5.60399570411884
H            3.33977045888481       -3.12466984260945       -6.17621961634077
H            1.96529720543287       -2.49730607431070       -5.82070749461355
