37
 energy: -59.860007092527 gnorm: 0.002274132966 xtb: 6.7.1 (edcfbbe)
N           -0.34851712144873       -0.77282749510456        1.63262829066478
C           -0.57271466538359       -0.37128440754071        0.22788894211084
C            0.59248503531146        0.44102360585831       -0.32447049311399
C            0.31215195306012        0.87747657128401       -1.76464560161099
C            0.31446791333640       -0.33903333341185       -2.71754372636465
O            1.41130549915541       -0.70241178710634       -3.19046090327733
O           -0.78470556993871       -0.90770367361415       -2.94217804381703
H            0.54315055159853       -1.26499301112262        1.72037810192289
H           -0.33718095899096        0.05149275642056        2.23796940840289
H           -1.48626467713021        0.21897840224546        0.16635223260942
H           -0.70924127607815       -1.25764643124701       -0.39163698144288
H            1.51028630244053       -0.15276690738776       -0.32702058256064
H            0.75533013216016        1.33571106163142        0.27861104965280
H           -0.65659845638298        1.37362046588227       -1.82674440433872
H            1.09192212974758        1.56105222033120       -2.10355699573211
H           -1.13482820758761       -1.42701426557102        1.94346014360663
O           -3.63784973204965        0.99830027504580        5.54052957717284
H           -3.12235860690450        0.33717584145437        6.01476217821990
H           -4.40488101460328        0.54397894642811        5.17527638696130
O           -2.80210479307139        2.50189053270623       -1.47840381382988
H           -3.10923569557954        3.08300078697957       -2.18024936272453
H           -2.96990604950271        2.98275619833731       -0.64608308151689
O           -3.19801537420878       -0.26700149125424       -1.80817541203649
H           -3.11735871938641        0.69952136547577       -1.71933955850823
H           -2.37970288559951       -0.55016559312846       -2.26491243581920
O           -3.17552886892300        3.94230338236215        0.89194254336767
H           -2.43351467176275        4.45907244995863        1.22178500597396
H           -3.66397004473394        3.62130591148953        1.65755454956122
O            2.64276324386765        3.51614914192985       -2.86725554793144
H            2.37217905857446        3.88990810847301       -3.71207154907912
H            3.55045971121364        3.21345026560856       -2.97352895092142
O           -2.35516807904383       -2.42231772880369        2.23956540556786
H           -3.05804929784365       -2.06962393701948        1.65575769034679
H           -2.24767199245637       -3.34669010216795        1.99834309540315
O           -4.14472492640437       -1.41462730089942        0.47451889633500
H           -3.78691867711298       -1.09336789397695       -0.37781709347663
H           -4.96471216822207       -0.93369993057450        0.61553804014949
