34
 energy: -56.710299351810 gnorm: 0.000549478522 xtb: 6.7.1 (edcfbbe)
C           -0.36720270291001       -0.13727577671009        1.01402706109366
C           -0.34130291552278        1.32808011241756        1.54190153683209
O           -0.33269326647028        1.47014407511639        2.78390736426048
O           -0.35046189618939        2.24596447860202        0.69592634813208
C            0.30835821960744       -0.26573053506968       -0.33987291092633
N            0.04389611845273       -1.57813333611367       -0.95306833522325
H            0.09596449269092       -0.76106635180562        1.77725287065994
H           -1.42385866758363       -0.40321127943031        0.94119497931676
H           -0.07098308278579        0.53463970250220       -0.97695076976636
H            1.38254698691488       -0.12022371995378       -0.22216697203953
H           -0.98227167020827       -1.71652493687990       -1.10149653332469
H            0.38384925605507       -2.34169181439836       -0.34391108084475
H            0.50200974685629       -1.66715800625782       -1.88852593542120
O           -1.62011812418272       -2.19282596037851       -6.23471311844495
H           -1.65844477562016       -2.67143261348462       -5.38167133905681
H           -1.48624619235858       -2.85830360135127       -6.91486506117096
O           -2.54693167764556       -2.09368695032706       -1.70528557015223
H           -2.25494438941778       -2.63140875315489       -2.47214047721194
H           -3.08847992185453       -1.38600435171048       -2.06200865654263
O            0.97839362447435       -2.06175436493648       -3.47731867826937
H            0.88627235802817       -1.40563611944649       -4.19807218172418
H            1.86206885549358       -2.45596413471307       -3.57137978898999
O           -1.32803454007560       -3.43553596291508       -3.77664099207791
H           -0.45858230770319       -2.98500572516094       -3.65779593599211
H           -1.15914769812728       -4.37527181136321       -3.66393665483566
O            0.88710033198124       -3.76374042543021        0.63331507349024
H            0.20792912962252       -4.34171216278152        0.99086008953463
H            1.68200464284550       -3.88127209910059        1.15917308744067
O            3.52410321884432       -3.18369238041138       -3.49274907056425
H            4.24626406823549       -2.63014375358541       -3.18238467913119
H            3.67653061903539       -4.07225983889129       -3.15747749248015
O            0.37666225284241       -0.43185451991901       -5.56577543564227
H           -0.35109497323533       -0.99295928527170       -5.90712515729325
H            0.00457487996474        0.44498120230221       -5.44154858369754
