37
 energy: -59.877990191703 gnorm: 0.000425376189 xtb: 6.7.1 (edcfbbe)
N           -0.23946335018344       -1.57099635054217        2.34120615291152
C           -0.23024390402654       -0.86584633075869        1.04956510120718
C            1.12767452061139       -0.21679118620473        0.80509597664356
C            1.16934302642283        0.53857509259532       -0.51960460343306
C            1.28575523752710       -0.35814361934233       -1.77055789198333
O            1.69475211459263       -1.53869746981551       -1.61556059558566
O            0.99591990682088        0.14990052857802       -2.86919004081971
H            0.44521522174931       -2.35963657497038        2.33267502507084
H            0.00742421874943       -0.91735340625528        3.11873802087216
H           -0.99893780055583       -0.09200988189894        1.05318064760795
H           -0.44429000659320       -1.57054135217142        0.24520567212362
H            1.90442802311471       -0.98212733575349        0.77460483216257
H            1.34646800296167        0.48089329000773        1.61462922220969
H            0.29235739445963        1.17316714658860       -0.65878350038518
H            2.04876131688479        1.18742784960846       -0.55943478461711
H           -1.17577030171992       -1.96546647115170        2.54263842334968
O            1.78693127371187       -3.59520045887354       -3.43577023622525
H            1.83090420128564       -2.79440945079084       -2.87205685654831
H            1.46480817976681       -3.29313345364288       -4.28919242479446
O           -1.70921118530261       -1.76839206357969        5.53037534628370
H           -1.42234068285835       -2.56309014297545        5.98973992078147
H           -2.16734167940235       -2.06727275754808        4.72696308501381
O            0.74857778736049       -3.84378562807430       -0.48844626568550
H            0.92143450026799       -4.47010929199671       -1.19780388069969
H            1.09473526115452       -2.99606936216601       -0.82371848895911
O           -3.00891422890172        3.80016665617704        6.49724329418653
H           -3.06579467990405        2.89784230020614        6.82855933002716
H           -2.29967372246839        3.81505909671772        5.84641075846499
O            0.17412206683938       -0.01446815278409        4.56579344592863
H           -0.53854402932116       -0.49353776879012        5.03593893873439
H            0.96276931918304       -0.09578515884201        5.10830750368057
O           -2.76013459546336       -2.64628784888605        3.03106264175941
H           -2.81542898447125       -3.58349029883110        2.81783863015976
H           -3.54394541861346       -2.22220964104125        2.66929834804843
O            1.41293162379120       -3.76620956137809        2.15739313992126
H            2.37163046924516       -3.78303729833915        2.20878996248917
H            1.17913990331476       -3.94160264292258        1.22504515003743
