34
	Energy:      -1.2816520
C         -0.75077        0.80847       -0.52165
C         -1.31704        1.94630        0.28438
O         -2.09494        2.72488       -0.24264
O         -0.98317        2.12164        1.57877
C          0.20453       -0.07594        0.29262
N          0.73173       -1.16649       -0.52673
H         -0.20434        1.23089       -1.39249
H         -1.59314        0.18680       -0.89517
H         -0.33766       -0.50406        1.16527
H          1.05108        0.53996        0.67025
H         -0.05040       -1.77053       -0.86941
H          1.26112       -0.78051       -1.34183
H          1.37950       -1.74754        0.05281
O         -4.86992        4.58071       -0.70267
H         -4.35983        4.81494        0.11315
H         -5.04153        3.60914       -0.61763
O          2.71150       -3.28590       -2.32323
H          1.86703       -3.03956       -2.77800
H          2.42232       -3.72407       -1.48360
H          0.56791        4.43953        0.14119
O          0.00929        5.24028       -0.02432
H         -0.69401        5.20066        0.67173
O          3.49052        0.23953        2.88719
H          4.36262       -0.08154        2.54516
H          3.45434        1.19206        2.61893
O         -0.92919       -0.68861       -3.75569
H         -0.00489       -0.34982       -3.64932
H         -1.47836        0.12554       -3.88287
O          3.86286        0.74877       -0.39748
H          3.71417       -0.23013       -0.38258
H          3.11109        1.10666       -0.93343
O         -4.20413        0.32328        0.90476
H         -3.58717        0.41485        1.67386
H         -4.45649       -0.63412        0.90244
