49
Coordinates from ORCA-job input E -1203.988825886544
  N          -0.36471371359702     -1.03293863863940      1.29893072006790
  C          -1.26243308937306     -0.26437970455006      0.39279817883595
  C          -0.49743012137510      0.76217845960372     -0.42634233264331
  C          -1.43805904221766      1.63092428239249     -1.27685274833828
  C          -2.26584714064102      0.79134655791294     -2.23614411855230
  O          -3.48324641379920      0.58638997022909     -1.96500381954466
  O          -1.68268538093118      0.30158232155336     -3.24632284414321
  H           0.37317090873840     -1.53800740359031      0.76605398644909
  H           0.08946207920419     -0.40463867953586      1.98203240216006
  H          -2.01774938370728      0.21339531297263      1.01495104865578
  H          -1.76433980355459     -0.99004699397074     -0.24561925911015
  H           0.22531575072907      0.25643428504998     -1.06876047472700
  H           0.06504394621231      1.41711610758763      0.24290209404162
  H          -2.10461740010140      2.19965078323664     -0.62865260731728
  H          -0.83859613631169      2.33317967992378     -1.85797376866431
  H          -0.93559274211318     -1.72931172344617      1.81630710194178
  O          -5.49027341175125      0.62538424090148     -3.90194375310458
  H          -4.81359832119229      0.63975031113702     -3.19231482459067
  H          -5.84050224532754      1.52379655169222     -3.94038749095601
  O          -4.40375956448759     -2.03333421629912      0.90246842949653
  H          -4.50598734579526     -1.05801995829474      0.89408073234848
  H          -4.24187940165162     -2.25267969178461     -0.04014274279367
  O           1.01371561999077      0.43587084408927     -3.66833002228273
  H           1.17877433465375      0.56776401199435     -4.60991702995131
  H           0.03476403282289      0.48574906352926     -3.55771545038060
  O           1.15311876182243     -2.22094146642057     -2.82218811011711
  H           1.22155965351094     -1.29353849691504     -3.13851694092268
  H           0.22145631407141     -2.45896573900792     -2.99815019809985
  O          -4.57711011330861      0.75496678259322      0.55770933842863
  H          -5.47677435747577      1.09706041479909      0.48870076550323
  H          -4.20398939008144      0.80181449574061     -0.35204576459660
  O           0.81170694135835      0.80373150234289      3.20385639351328
  H           1.49104100788634      1.35356369359421      2.79126515407005
  H           0.14877262497570      1.42819658601264      3.52725456999965
  O           1.64793939437113     -2.37292616495260     -0.15969700783328
  H           1.47267321437965     -2.33529301129072     -1.13387468752442
  H           1.71225484293261     -3.31015822751377      0.06066240980308
  O          -1.62255763438267     -2.46043514637712     -3.36568907952940
  H          -1.80559530946930     -2.80116257913721     -4.25094525050782
  H          -1.70605722667755     -1.48243077816365     -3.43332627059662
  O          -2.27066800677891     -2.80618099966161      2.40089882975434
  H          -2.49095593467668     -2.67569879080930      3.33114093702063
  H          -3.07315384944163     -2.52962883941670      1.88998480233901
  O          -4.04509346805888     -2.21343035400018     -1.85754577989907
  H          -3.24469211883217     -2.55786161296446     -2.29452547752004
  H          -3.95572802446198     -1.24647491278768     -1.96410084834993
  H          -4.14175201173188      0.30904319634147     -5.22311311491677
  O          -3.27440068958398      0.14482214078191     -5.63742990728093
  H          -2.66438465400365      0.18421375528084     -4.87878541770534
