34
 energy: -56.704606419799 gnorm: 0.000524177190 xtb: 6.7.1 (edcfbbe)
H           -0.10241096984535       -1.99399004330311        0.65119306079123
C           -0.83482403539705       -1.23551051838020        0.37126108364440
H            0.10116780462743       -1.00376057311840       -1.48959640487130
H           -1.75367641242874       -1.72236847458078        0.03891979173406
N           -0.27475058216463       -0.41518255403525       -0.71889792014099
H           -1.56112359445724       -0.90961121911665        2.39324265358467
C           -1.11419488760424       -0.34487789820677        1.57649138414965
O            1.04696680177602        0.67695964407813        1.30839566923455
C            0.15927389064446        0.34254700269406        2.12664595622679
H            0.48013759977597        0.14164881522753       -0.25877251371275
O            0.20891997213267        0.53678951888756        3.36042347821035
H           -0.99157455827643        0.24165633878898       -1.07671276190108
H           -1.80629737863833        0.45332441114909        1.29926252982486
O            0.75156145623776       -2.10180287483905       -2.65993337498910
H            0.29179567907601       -2.09700997569208       -3.52429249396784
H            1.69490547110775       -2.09506518387051       -2.84137630259297
O           -1.02827926352644       -4.25594605035143       -2.36369430896582
H           -0.34599665560795       -3.56794779017762       -2.25817720760006
H           -0.63370310254295       -5.07912486195782       -2.06361410233672
O            2.15103775836666        1.61976416741580        4.97358069037367
H            1.68456524680536        1.59187184629000        5.81548106022377
H            1.51955320732076        1.25246539419407        4.32009448099768
O           -0.48578517834320        2.24543908965537       -6.15407422078905
H            0.35084798032384        2.08344609686172       -5.70550628596342
H           -0.35408906906292        2.03371155979779       -7.08287210344308
O           -3.14077879687661       -3.15282399726046       -0.90325939038267
H           -3.69047657305812       -3.85388868265626       -0.54556322422374
H           -2.46765607817385       -3.58644732866730       -1.46180373156487
O           -2.19170901334447        1.47941225641009       -1.51548699244415
H           -1.90141542738726        2.38431276604649       -1.65854579816684
H           -2.90449718215200        1.30093582644122       -2.13704464015520
O           -0.87379956166356       -2.63977490523428       -4.78806059927397
H           -1.17661663036331       -3.39830341987691       -4.26704416450519
H           -1.65900491726319       -2.13353338256707       -5.01702129700864
