34
 energy: -56.705918831307 gnorm: 0.000218529508 xtb: 6.7.1 (edcfbbe)
H            0.34310987784644       -1.25963214433571       -1.50677685252023
C           -0.58748441131164       -0.71626275426627       -1.33293161385542
H           -0.12014453705728        0.42209438209913       -3.03245683774557
H           -1.42144477940197       -1.33628941957438       -1.66072315780071
N           -0.55464762193831        0.55080899721549       -2.09374521378359
H           -0.69267805516745       -1.36333934146144        0.72130311901875
C           -0.70961047429640       -0.43024892327833        0.16081500803016
O            0.71341512280549        1.49316792206302        0.00173151348242
C            0.44077682798858        0.46673506621824        0.67334414377742
H            0.03132454724246        1.19511774747471       -1.49435737497908
O            1.01996974661429        0.13161777000442        1.72624399662203
H           -1.48586764382203        0.95553862088423       -2.19183760016025
H           -1.64176599950382        0.09308266311976        0.38416926984053
O           -0.22650225458445       -3.79248978524555        0.84395043351082
H           -0.74399217064146       -4.59849578805889        0.74957992169492
H            0.34895596889056       -3.92554301448036        1.61477023936107
O            0.68126818095416        0.08710052534956       -4.52185696618647
H            0.56292963761358       -0.75963334379316       -4.96333705489842
H            1.62004210334317        0.29424841343700       -4.54010289909446
O            1.77889021043519       -4.20923329931872        2.77982901543397
H            2.33822032977014       -4.96740145470113        2.58166659974989
H            2.02655770297564       -3.92698498186767        3.68759690999343
O            2.77292466083488       -3.25877611403849        5.11349641915949
H            3.52055115846188       -2.77543053570636        4.70376408240764
H            2.28362864248652       -2.60452824664604        5.61990791921676
O            1.81846568058065       -2.82319898578994       -0.87991528409440
H            1.07662740526863       -3.22922561423326       -0.39791099280832
H            2.37862869805522       -2.44805231962861       -0.18094765199588
O            2.82289532839768       -1.91392586882118        1.61807864086597
H            2.36271296523677       -2.68870207557249        2.00672992245746
H            2.20430375629911       -1.16565444994416        1.71539169570556
O            4.65093814861982       -1.88947358281700        3.65633226150742
H            5.48479031011997       -2.22840468362047        3.31731753700787
H            4.06882793685160       -1.76857038065078        2.87548885111245
