37
 energy: -59.865899892549 gnorm: 0.000240898523 xtb: 6.7.1 (edcfbbe)
N           -1.05872045751033       -1.08811509470702        1.03140939275812
C           -0.69507072280437        0.33980433772203        1.04151346782281
C           -0.16584316811722        0.78553988282511       -0.31899332064518
C            1.27864309388015        0.35738978076027       -0.60239514373122
C            1.50758508023203       -1.08434494782264       -1.11478924572995
O            2.44232694913549       -1.24983203450561       -1.92124622907518
O            0.77464402098246       -2.00691942105807       -0.67762886960827
H           -0.99501698756007       -1.49774113168154        1.98018709670599
H           -2.02156947853128       -1.22768803523945        0.67489048369257
H           -1.57368492738949        0.92992997163034        1.30108521100553
H            0.07208891153153        0.50513606008881        1.79932666966657
H           -0.19198363870858        1.87529467382608       -0.35354153344698
H           -0.81647553157893        0.41263749976261       -1.11170605164883
H            1.88826680098063        0.45467043566070        0.30084595624757
H            1.72267243173519        1.00605943252177       -1.36045879377212
H           -0.37859038764813       -1.58292515279272        0.38956166179731
O           -0.75898962329815       -2.14389121092698        3.61438127149441
H           -1.50695693618144       -2.59413208657512        4.01954422972172
H            0.00943564143694       -2.71099979681081        3.72285330121796
O           -4.77743828941237       -0.99892385295385       -2.18012657420530
H           -4.29512067518092       -1.53201135581485       -2.84117845275070
H           -5.69587569493839       -0.97693838264907       -2.46416907646664
O           -2.45258214255936        0.50649480677575       -2.97296777037095
H           -2.60386923411084        1.32622739327929       -3.45239990364942
H           -3.29024441606494        0.28841193826516       -2.53214362932646
O           -3.76302334096215       -1.37954234356864        0.38888258382200
H           -4.45873151373344       -1.07298886546308        0.97681721258179
H           -4.10199787167129       -1.28349425778759       -0.51687600358064
O           -1.53948237853661       -6.41868363084618        1.12460244325064
H           -0.66633180374159       -6.21845608261981        0.77365475832680
H           -2.16447299550328       -5.85990596501237        0.65048050058701
O           -2.48972181952619        5.95190128585865       -4.02238769582665
H           -1.83474622579373        5.95305278002315       -4.72728916949292
H           -2.01906123977165        6.11512079470863       -3.19868665429670
O           -3.02178270979578       -2.04396821612398       -4.03530863916467
H           -2.55130974339886       -1.20622103885933       -3.87880502650663
H           -2.38292497462274       -2.74596616970153       -3.88370745678480
