34
 energy: -56.707868469176 gnorm: 0.000298234349 xtb: 6.7.1 (edcfbbe)
H            1.13697749022640       -0.02843979270552       -0.97152994663512
C            0.05457169124479        0.09627623391333       -0.91438802257048
H            0.18236493206792        2.12546419707736       -1.47965670920042
H           -0.40332910904201       -0.26906654541178       -1.83417271184206
N           -0.24175206422828        1.52854679760326       -0.73437189629101
H           -0.32907659590432       -1.75551627932840        0.15259377906494
C           -0.48445083099045       -0.68506595700098        0.27872990002226
O            0.68308442822007        0.85039360934318        1.71926474698084
C            0.15742578066001       -0.28521832653156        1.62279826100777
H            0.15245917700819        1.76499508034484        0.19339330860192
O            0.09848319824289       -1.11854081129662        2.55172068014988
H           -1.26610632499375        1.68869444812512       -0.70568887078852
H           -1.55880472510971       -0.51751069318935        0.38545381606805
O            3.05430083902306        1.33133861675452        0.38064634173110
H            2.28584550438541        1.15359626633188        0.95081891790546
H            3.65873263472574        1.85734902325850        0.91119383267392
O           -1.32358388134470       -1.19525458938088       -3.73364122614226
H           -1.41954774970883       -2.12994986236723       -3.93440907761659
H           -1.76741860151942       -0.70606758335701       -4.43378695944545
O            0.91895800614553       -0.63820395828462        5.09144876043642
H            0.62788097420106       -0.75148659827972        4.15764580361532
H            1.01824206756443       -1.53108545555051        5.43611466167789
O           -0.13344691665021        1.46858919471546        6.65236097120281
H            0.19934021012025        0.70913214018611        6.14299905356861
H            0.19729078757630        2.24897217621367        6.19645081075687
O            0.76064125023600        3.23829263675412       -2.64674532892337
H            1.35311796041771        2.88108800238731       -3.33093504760045
H            1.16488116687502        4.05161246264599       -2.33170393194836
O           -3.00846870314582        1.97510373642783       -0.52032417000987
H           -3.51042009865772        2.20156595805074       -1.30998086004275
H           -3.30933288838032        2.54916805460446        0.18960630909132
O            2.58352219583855        2.18695707486480       -4.48639780248793
H            3.46458983245787        1.99626647541039       -4.15017912547728
H            2.33114736239110        1.45247826770971       -5.05439326749667
