34
 energy: -56.712919378091 gnorm: 0.000439673079 xtb: 6.7.1 (edcfbbe)
C            0.25109181436490       -0.85329890830643        0.76932568425739
C            0.43173627850231        0.15764445124311        1.91902532149798
O            0.38924175332413       -0.33314033259069        3.08538459584640
O            0.58822424369599        1.35988541124599        1.65787430127913
C            0.62157320168923       -0.29410783163526       -0.59223640341652
N            0.28222830481272       -1.26900631169072       -1.64316398929973
H            0.86469663188220       -1.72088035014791        1.00856952313663
H           -0.79616680786031       -1.15994638131205        0.79753920716227
H            0.09727129904280        0.64917696815474       -0.75192135689431
H            1.69157312945600       -0.08684999653216       -0.60786708952295
H           -0.74363205857028       -1.35815149088157       -1.73898302865402
H            0.64650048741646       -2.22448232621101       -1.37533775750121
H            0.68235461745299       -0.99795217906904       -2.56064339638640
O            2.41269379789823       -2.32213740460212        3.31817399577833
H            1.96030479604334       -3.01656104640145        2.80522664043588
H            1.78553834303959       -1.58102415129529        3.35502362705990
O           -2.51822523585028       -1.60920174533966       -2.04023716361631
H           -2.82583296003168       -1.22183167539826       -2.86722840040076
H           -3.13839923156854       -1.34835370015235       -1.35412053600135
O           -1.11197471235761       -2.56272619099716        3.22222247007712
H           -0.58988652117389       -1.72710506339890        3.20887774858229
H           -1.29050517560689       -2.74427187784876        4.14954135059259
O           -1.59165191910541       -4.30810928572359       -2.00210145373664
H           -1.62140062726745       -4.60162904186269       -2.91718153574682
H           -1.98516843805420       -3.41929001024588       -1.98350235960156
O            1.39974052016300       -0.61879270117403       -4.12281940193705
H            1.96875197243200       -1.30176296269562       -4.49019936560587
H            1.80227573486501        0.23171878223365       -4.31519269888630
O            0.89004074052303       -3.80932877312131       -0.93190645995971
H            0.03350593295197       -4.16434410457919       -1.24660934202919
H            0.89331788093385       -3.93416539052642        0.03052480000377
O            0.69268283443794       -4.12165622208120        1.88167664873850
H            0.60896888399789       -5.02377270201877        2.20490587477137
H           -0.03989151148148       -3.61508345500531        2.29221494994385
