34
 energy: -56.706655708435 gnorm: 0.000324253616 xtb: 6.7.1 (edcfbbe)
H            0.93832628292261       -0.40805679815336        0.50392538033361
C            0.03301014690980       -0.33986189564629       -0.10186128056983
H            1.17709626254534        0.05945861854377       -1.80158079979862
H           -0.31941312432989       -1.34584720707627       -0.34072123459307
N            0.33237100538119        0.39901372324104       -1.34515166876370
H           -1.30733671702706       -0.08312977089880        1.59033406485797
C           -1.02695357666027        0.43345026656589        0.67418964830015
O            0.16943475855839        2.47733313297147        0.25188450357525
C           -0.55864478259181        1.85899288797819        1.07266145115537
H            0.43904081760034        1.39566568427798       -1.02063353204553
O           -0.94493456798280        2.30625997642705        2.16713483212015
H           -0.48540322742157        0.34463395421037       -2.00395923215799
H           -1.92211380633528        0.55851702281120        0.06135560348701
O            0.99362790333706       -4.70878343453488       -2.53197146804113
H            1.84684058348818       -4.47900062173943       -2.15312101158251
H            0.32048492706298       -4.25904918197666       -1.97408422199549
O           -1.97425712876332       -2.45458486670918       -3.64642133274598
H           -1.22073555071667       -2.82645866766701       -4.16871228795512
H           -2.76312985785196       -2.90251495434880       -3.96266559791397
O            2.25348323825325       -2.03443452039799       -5.86777339206465
H            2.10430163868799       -1.26119537537720       -6.42034655887562
H            3.02012350719660       -2.49668989725977       -6.21919796511018
O            0.09347797024275       -3.59470745679796       -4.88942092232298
H            0.82332951776642       -3.03603244085852       -5.20437458671910
H            0.45470179336186       -4.10629200858351       -4.13739454621119
O           -3.04563522701725       -4.40303384614276        0.22906256174225
H           -3.76358856081855       -3.80455685740344        0.45816912972639
H           -2.90919742341961       -4.98920580123868        0.97904925345540
O           -1.79715960531663        0.21209969012630       -3.03625224046357
H           -1.75638699488582        0.68113556867885       -3.87426551105611
H           -1.90941729989564       -0.73591077172063       -3.25004723325185
O           -0.90786278305944       -3.25343282540279       -1.22103843878947
H           -1.34435788722598       -2.92716615535045       -2.03399975819223
H           -1.59982223202347       -3.71857917058497       -0.72572260755097
