37
 energy: -59.876793107111 gnorm: 0.000150018918 xtb: 6.7.1 (edcfbbe)
N           -0.45761737854394       -0.93270083409609        1.61680652710781
C           -0.18692665395165        0.50263586135005        1.42001099569012
C           -0.59126914086377        0.97305172886886        0.02649069976684
C            0.29202508621218        0.41153204781537       -1.09686419235654
C           -0.15357403418051       -0.92317843521407       -1.72304882328685
O            0.13626921570880       -1.13569186342329       -2.91102297250951
O           -0.78187451207733       -1.74361602684265       -0.99235004816488
H            0.23185880251354       -1.34432053189518        2.28527476341509
H           -1.42934976201557       -1.12530456230324        1.95443513967833
H           -0.73986931414413        1.07566053345026        2.16278606309403
H            0.87977237236392        0.68131454149576        1.56251365786099
H           -0.51063650852404        2.06052077425569        0.00418866796960
H           -1.63407017015019        0.71484386042409       -0.16088765061146
H            1.31288118410905        0.25500859049581       -0.73771385021649
H            0.35272858969003        1.11697496498680       -1.92758878063883
H           -0.39985198996984       -1.40750989907902        0.69495930590772
O            0.05579631976168        4.44579089209790        0.22391695026583
H            0.33340678393928        5.02129289721772       -0.49472932698037
H            0.15719031896968        4.94803998790429        1.03920350894791
O           -1.80237424544407       -3.90368188946320        0.55674910520373
H           -2.10636426323625       -4.66405065279956        0.05526622647927
H           -1.39284816555727       -3.29832928222289       -0.07918714570978
O           -3.42250270419702       -1.00009059084038       -0.52455190155652
H           -3.99917328195077       -1.26149648418139       -1.24643996281805
H           -2.52576288536119       -1.30773414638963       -0.75414929650261
O            0.61664960513254       -0.42881492260551        5.80062642056665
H           -0.27928114326057       -0.55703577194210        6.12768397922377
H            0.90627118649100        0.44303918656781        6.08402897494217
O            1.43081244645464       -1.72519493176170        3.42996657990496
H            1.50040795801595       -2.67156021670870        3.64045897457816
H            1.22642471766981       -1.28502728655037        4.27224045817971
O           -2.99270616735306       -1.85606329848070        2.09002021154565
H           -2.69533297704013       -2.72882972843216        1.78006690164068
H           -3.38769002721052       -1.44607630036663        1.30220393037531
O            1.36560228112368       -4.46660472709295        4.06172422181921
H            0.53736504776322       -4.75431316747866        4.45979277230248
H            1.60085740917442       -5.11593431687185        3.39274691512439
