166
 energy: -278.891557621325 gnorm: 0.000460215420 xtb: 6.7.1 (edcfbbe)
N            0.42335987325979        0.73365610071120        1.73554427668080
C            0.82597988388686       -0.26593869954235        0.73988487527136
C            0.20186799961420        0.08116971332063       -0.60455444582779
C            0.80483618306284       -0.73515798074113       -1.76040701832345
C            0.81523962552518        0.12347329341772       -3.01037464305689
O            1.66219170079258        1.05244420221770       -3.07861495476312
O           -0.05763072263251       -0.06594823459669       -3.90119101442778
H            0.70820480893010        1.67475323085059        1.42349720449553
H           -0.61276686452580        0.73311111724541        1.82164129835833
H            0.49848708165965       -1.24852231325735        1.06680626563332
H            1.90731188928781       -0.26570642069656        0.65474372440318
H            0.35237628903303        1.14269642263466       -0.80091961275394
H           -0.87093236466556       -0.08987042217088       -0.56968908868924
H            0.23084934842171       -1.63977241146325       -1.93778206445943
H            1.83651816929759       -1.00312871959227       -1.54280199818829
H            0.84580789729286        0.52695058241342        2.64435165466113
O            0.78912340002864       -4.54862107008034       -1.54106478049280
H            1.03498270256698       -4.30623897948954       -2.44721482631945
H            0.03077389052884       -3.96746046666221       -1.29474036225351
O           -3.61167107672914        1.93957376719640       -4.79380144245148
H           -3.44736368040797        1.32443205402706       -4.05253516787247
H           -2.71903373003779        2.10486378181031       -5.15048009708445
O            1.07349495053543        4.25715741332335        3.34463724200208
H            1.82171630597811        4.63860148736982        2.87400878893704
H            1.38806727330050        3.37630303344239        3.64377440395290
O           -0.95752887386679       -2.68807329175188       -3.87303432449221
H           -0.63684828170451       -1.76356026784011       -3.91588849453321
H           -0.22423456773225       -3.22872263967039       -4.18921766466351
O           -4.81307593162228        5.25619674750056        3.31353885722911
H           -4.23292317452509        4.67498533452144        3.84525967118557
H           -5.65499759728406        4.79759307080226        3.24568304805889
O            3.99887099726565        4.12737192761530       -3.20175587970494
H            3.07699646832244        4.02933644030083       -2.86947210292378
H            3.96530270134002        4.77910183117811       -3.90493780632261
O           -1.45885015666359        3.74104019928451        2.43893214733040
H           -0.56246438334102        4.02540901085479        2.70448566159525
H           -2.01744468861488        3.79680081097198        3.23873897434706
O           -2.51062680467634        0.50340751162811       -2.71897428130097
H           -2.76918807756428       -0.22387092119587       -2.10032056384676
H           -1.74047558838589        0.17871023361129       -3.20844041714651
O            4.85839596633457        3.63196357418685       -0.56732994345879
H            4.39266955706120        2.77215907291584       -0.66867218988550
H            4.77774730615528        4.04236677402852       -1.43746966183584
O            3.25238792809810        1.41530648759933       -0.73508246782265
H            2.55382559550152        1.92368374640162       -0.23322987145987
H            2.84564837958515        1.28277208091963       -1.60728390305623
O           -4.82964302707121       -2.65820089871807       -2.60151667341739
H           -4.57724513036387       -2.21321538844462       -3.42845512610285
H           -4.33544410934474       -3.50511240514310       -2.63977681040976
O            3.56673945789335        4.18821906114276        1.78848098591508
H            4.10414083727779        4.23346336396597        0.97552669764514
H            3.88884230169261        3.38995569439953        2.23595110757282
O           -5.44842423401197       -0.30530187079934        2.56506607277420
H           -4.73395026265332       -0.95615066120410        2.38238395573797
H           -5.42783399267070        0.26165120832511        1.77803960954842
O           -3.85565279991456        4.24409798254950       -3.37303041326992
H           -2.89065960824917        4.37311824346873       -3.36226610864954
H           -3.97365630552718        3.44482404999917       -3.92873241309903
O           -2.91483155149225       -4.35755837493213        2.35254774341374
H           -3.02652342604720       -3.39840578808461        2.12084610087883
H           -2.00414255235014       -4.44988376529538        2.66790668776243
O           -0.70807299592628        1.44344875755596        4.45101404368032
H           -1.02604544893016        2.06440916478173        3.78200196411575
H            0.25739450931290        1.52883119263216        4.43955170351586
O           -3.18998707664597       -1.34029070226197       -0.91822990015280
H           -3.87201604077345       -1.82655226839610       -1.42690144814808
H           -2.42339805796541       -1.96185493872970       -0.85809639238846
O            5.23265551535307       -1.09493413491701       -2.86597744719796
H            6.13094215756269       -1.19784425521403       -3.19140996465322
H            5.00026846625716       -0.15614785003134       -3.03111992206674
O            4.34008610699417        1.35232029296426       -3.67182951878882
H            3.38156415027418        1.18825629020592       -3.66269992172468
H            4.42764756892179        2.30576003814900       -3.50146985493283
O            1.52012798055545        2.98611798835751        0.47384133959007
H            1.33569447056684        3.46247288129033       -0.34629741325586
H            2.15016010806613        3.52858465237661        0.99144074424428
O           -3.45093672994737       -1.85080509916603       -4.86891589850601
H           -2.60032327518775       -2.20424900143236       -4.55183007893906
H           -3.52887603985499       -2.11034905392333       -5.78879637304481
O           -0.86825094464304        2.35489191718066       -5.07747156852314
H           -0.49984159306681        1.52257398327553       -4.72187564285374
H           -0.83012934183076        3.00499008876959       -4.36014857572238
O           -3.59551999799391        0.97006214877060        4.13331529503212
H           -3.01844179758182        0.96212739519140        3.32747362763795
H           -4.43070661192018        0.59380907363528        3.80748363490732
O            3.96619004856975        1.39309376011538        2.23367274799937
H            4.15040918230965        0.44800043164424        2.41813732274989
H            3.82002557826689        1.43450328987621        1.27950792332512
O           -4.48155785227334        0.97390661296931        0.26299472577530
H           -4.54249043376282        1.83614485234250       -0.17937575895461
H           -4.22230433678634        0.32230659508323       -0.40106737199424
O           -2.48811656970431       -3.07845788765426        4.98246337306752
H           -3.03808939410788       -3.44866592400003        4.27536694007199
H           -3.03224200816342       -3.02383648584876        5.77015546861675
O            3.88749280478594       -4.01335585468871        2.58651368507773
H            3.54885785824980       -4.16485933115074        1.68830412430468
H            4.09961764673869       -3.05243795768228        2.60129915037670
O            1.49633050924666        3.63874451500880       -2.26688398798738
H            0.65022833119683        4.01436282859328       -2.57883616028979
H            1.49696991689698        2.71886729620583       -2.59275777797911
O            3.85329417324020       -1.17254062320189       -0.37479564342281
H            4.54839712431136       -1.33956254494861       -1.02014945288469
H            3.65706712463034       -0.21189533486640       -0.47409414916635
O           -4.19605057308368        3.52977398762128       -0.73997834528985
H           -3.94457334599208        4.27424232844359       -0.14854549147475
H           -4.24355090792019        3.88038780467766       -1.64926963562213
O           -1.71638790773344        2.55351978104063       -1.14859758479424
H           -2.58365771046607        2.89582609817893       -0.84294849973161
H           -1.95888044785195        1.79626602295161       -1.72134398990375
O           -2.99560312119901       -4.65894725160539       -2.74933265845216
H           -2.23901816654956       -4.07871649916263       -2.91863133523579
H           -2.87457878325166       -5.01481781836063       -1.85358931683629
O            3.92344679230906       -1.30376233983842        2.38224603927965
H            3.00075265008956       -1.29296915379853        2.73657542698186
H            3.84889358882105       -1.34930721871199        1.40994416786420
O            0.36538719147923       -3.19964754115280        1.58824192832614
H            0.09653223812701       -3.70664192944132        2.37498685929495
H            1.19671771692843       -3.57662137592340        1.27741257375794
O           -1.24409191111594       -3.12801736498035       -0.53205314883986
H           -0.72839880275521       -3.02837995801543        0.30590819175128
H           -1.78888595728082       -3.92261644853428       -0.38704245733678
O            1.87149445745189       -3.75865931622955       -3.97843010415183
H            2.70589778064179       -4.07487462309137       -3.57646868632541
H            2.07839735909746       -2.83180776830553       -4.20445387774900
O           -2.26358892323168        1.20528142914149        1.81031497052297
H           -3.03256085948210        1.08162166442657        1.22385385555819
H           -2.06552619150913        2.15754525863245        1.80129898782697
O           -3.21414039141606        5.31077107590936        1.02799223709567
H           -2.48671336298448        4.78181350056669        1.42484673986682
H           -3.82650905145617        5.45983911194935        1.76976719892114
O            4.17943596417776       -3.96047033557190       -2.47076692366773
H            3.84434309642553       -4.04687638038174       -1.55598658122966
H            4.51868225505399       -3.05872811230342       -2.54187060537976
O           -0.36850838674209       -4.51923347422805        3.85948957925192
H            0.52716576584548       -4.42226702704743        4.23247852883110
H           -0.95680340978348       -4.01206528413531        4.44332436056898
O            1.55534699858306       -1.32454969041997        3.66888839379520
H            0.59606432974552       -1.36206859788200        3.45764755163508
H            1.73682446378095       -2.13650374562292        4.15601221878391
O           -1.05404540271093        4.36892924175710       -2.84487224347822
H           -1.19117164944115        5.21461140657812       -2.40931051594756
H           -1.31046083070580        3.66395088478120       -2.15177078584697
O            2.93116803941481       -1.30346882507538       -4.52999516191680
H            3.72682641218255       -1.31758769175979       -3.96572754974546
H            3.23936676057090       -1.13679194616980       -5.42392153168993
O            2.03365272098231        1.79060891895878        4.05413520396908
H            2.52181202179054        1.68847846778229        4.87090725051792
H            2.68468715897673        1.63814810560415        3.33007976371292
O           -3.23086951928490       -1.75878965537038        1.87475111234911
H           -3.18709763003796       -1.50439565772348        0.93760681908908
H           -2.44367429518566       -1.35759381593003        2.31291329720376
O           -2.59343568828227       -5.46446256024668       -0.05572680842543
H           -2.10794973239221       -6.27861248540387        0.09331985440445
H           -2.87001650534462       -5.13633161139302        0.83705318161106
O            2.19174794226834       -3.93953372134698        4.66096647136793
H            2.79546028432716       -4.05929919928765        3.88815373220463
H            2.67207706582045       -4.25405861817616        5.42848915135166
O           -3.10444155356751        3.51849429028290        4.62209490371813
H           -3.35147663727542        2.56213634334224        4.48856401586824
H           -2.67507852407065        3.55624131817850        5.47957971367087
O            2.81450401282846       -3.78383417679522       -0.00472104013662
H            2.90406961748170       -2.82803540443398       -0.15942259348021
H            2.05047514877303       -4.08883010839694       -0.55418454878809
O           -1.15105881486472       -1.07168181642202        3.47709269951875
H           -1.15382657178254       -0.18011164474543        3.88623254785213
H           -1.55905125724762       -1.66369131294914        4.12131448212088
