37
 energy: -59.878148947585 gnorm: 0.000323995885 xtb: 6.7.1 (edcfbbe)
N            0.39674896057464       -1.27040193266029        1.94804195803849
C           -0.24069070102372       -0.43453884030744        0.92010018682075
C            0.81123984267587        0.22906061331651        0.03420337427292
C            0.21461342208706        0.68284605932622       -1.29351915889472
C           -0.08288851814901       -0.47128930251160       -2.28715885834962
O            0.29107752098827       -1.62997707918450       -1.99143434530091
O           -0.67196075464222       -0.15643601769626       -3.34143663252062
H            0.94914503679375       -2.00532965615866        1.47424096321795
H            1.01023679780268       -0.72043257347034        2.58230239865806
H           -0.86636161163411        0.32187542757503        1.39301252793678
H           -0.87213842828171       -1.06489688044143        0.29299363939004
H            1.59998994694545       -0.48944506869905       -0.19397824110078
H            1.25282823620914        1.08763880544907        0.53990715640051
H           -0.72087872876726        1.22883081726620       -1.15544399976877
H            0.90053757683449        1.34809199624795       -1.82423960490179
H           -0.31278636193840       -1.75637855278911        2.51633665420056
O           -1.06825097003598       -3.69541243799030        2.05233094075277
H           -0.48692281023102       -3.96429326724963        2.78747221581013
H           -0.52374060407141       -3.76773476060595        1.25462995212429
O           -0.43355013290684       -1.35755516371904        4.74210038087155
H           -1.08913709612964       -0.94669617848190        5.30819751234127
H            0.34252775234268       -0.77570178648155        4.70991970380571
O            2.00886564340707       -0.19387580970511        3.94451547678861
H            2.67450089803557        0.49601206311203        3.96868009283262
H            2.48202137915021       -1.05143684342793        3.88149626896589
O            1.00102995048267       -3.27609165055797        0.08726639980877
H            1.66209667824016       -3.87763423182192       -0.26364846771086
H            0.71334034554265       -2.72567028149049       -0.66547476158502
O            2.92728241177567       -2.70155560929192        3.53972368362359
H            3.67329395759247       -3.21528031429884        3.85520780274034
H            2.12028954465399       -3.20690076643782        3.76142530879027
O           -3.84922305775607       -3.96632297849262        2.36841222983787
H           -2.87843577763379       -3.92619191748415        2.28665740896583
H           -4.19316475140511       -3.63095602260568        1.53637353417616
O            0.54303246407224       -3.85697688927051        4.31303524552118
H            0.14352584626013       -2.99748452753212        4.56584590694116
H            0.36980809210072       -4.46485844142719        5.03545114652639
