37
 energy: -59.876137751726 gnorm: 0.000388479755 xtb: 6.7.1 (edcfbbe)
N           -0.68862985230906       -0.61241938089650        2.40052749236928
C            0.13994002564363        0.51011921536842        1.92478072294817
C           -0.12843101232042        0.77583222366825        0.44687949498139
C            0.62379210015838       -0.16745172857411       -0.49832575915286
C            0.02228125437066       -1.57299780370656       -0.73377533313681
O            0.20743240381413       -2.07643552388982       -1.85983514113033
O           -0.58381630221323       -2.14354054670418        0.20733376821972
H           -0.31663279333448       -1.01388846356014        3.27428696595188
H           -1.66479549860279       -0.29691688916847        2.55357790672770
H           -0.08520830699245        1.39578828718791        2.52061496275328
H            1.19191957060407        0.25873786197605        2.06572148560753
H            0.18122761609733        1.79292484056982        0.20847185374217
H           -1.19818251372228        0.70181661039074        0.24860759202566
H            1.64184633409711       -0.33826361483206       -0.13467850646397
H            0.71172104573234        0.27843776235497       -1.49101401328822
H           -0.69095973784646       -1.34137941651295        1.63724108232681
O           -3.26452431037958        0.38984081666983        2.85810830297010
H           -3.12113112154740        1.35217410799502        2.98648402883552
H           -3.81001718653976        0.08568604286996        3.58863521818275
O            0.37605270934597       -1.68254948237671        4.79825141331497
H            0.29481510310457       -2.61127119549894        5.03110317520573
H            0.42447553957785       -1.17565650635560        5.61439381757805
O           -3.15132110561358        3.30529507547524        0.32933513397848
H           -2.37815740871791        3.49429433185123       -0.22650332123140
H           -3.37876939098052        2.37633623671288        0.13828604137773
O           -3.60011597692745        0.58023056759460        0.12088778232653
H           -4.25052155011072       -0.01361892678283       -0.25953546034099
H           -3.56935122979559        0.39141645772043        1.07938644972909
O           -0.34650218254544        3.08044505843516        3.96108715761879
H            0.02382426802245        3.95504171087034        3.82043075577173
H           -1.27701370301926        3.12682386159056        3.67446448817184
O           -1.03184446106072        3.73938759218740       -1.50016234743729
H           -0.55842468333920        4.56977355548574       -1.61371638060083
H           -1.28595219396269        3.43662309225284       -2.37658966533683
O           -2.96268797223338        3.10082832349121        2.99191258498242
H           -3.67230958292075        3.65319720673895        3.33227833328803
H           -2.96288389342455        3.23522563939098        2.01357791689689
