37
 energy: -59.871894286633 gnorm: 0.002879168292 xtb: 6.7.1 (edcfbbe)
N           -0.28913114403421       -1.43929092017289        0.87984425105953
C            0.32239417512553       -0.34780270628117        0.10487411640087
C            0.28283032436280        0.96379561725822        0.88547612566554
C           -1.07843022665683        1.25190492470786        1.53634921258314
C           -2.28989226884806        0.99907162335190        0.60538043978000
O           -2.82786724015346        1.98063434247383        0.05856218809627
O           -2.66511118564665       -0.19574556455634        0.48072342901928
H           -0.07310755460466       -2.36299211835399        0.46439425953559
H            0.06097302529444       -1.45624927672898        1.87287727626661
H            1.35302760975107       -0.60509153069155       -0.14206369564797
H           -0.24043304614846       -0.22721288988345       -0.82287317060287
H            0.52876163251875        1.77803801521770        0.20239849321001
H            1.03203330027131        0.94509361354757        1.67820417327338
H           -1.21190818230308        0.62610594771921        2.42051468462058
H           -1.11993311162725        2.29849076392065        1.84320731798366
H           -1.31493622041843       -1.25171556511091        0.87586178408902
O           -1.44110215650100       -3.61639392479536        4.27932683191383
H           -1.54624470971736       -3.98067582446481        5.16464772073622
H           -2.31829546481692       -3.54450349118603        3.89372931734234
O            4.61149266691305       -2.66857892540287        1.40234968550184
H            4.91912519021521       -1.82854939700574        1.75827843625169
H            5.38784686069478       -3.16115831044955        1.11952392719683
O            2.80391178316261       -2.30093991694954       -0.76857261836621
H            3.44471294626692       -2.41598241688089       -0.04781968481460
H            2.09280965179562       -2.93769231091514       -0.57819064445146
O            0.77843158478188       -3.92861670833989        0.26311791355136
H            0.36138429944261       -4.77895061235195        0.10315799784583
H            1.25084207878938       -3.99036188316044        1.11907908825504
O            2.33600847511175       -3.83144996880693        2.53762606422419
H            2.62261793130275       -4.56765254238294        3.08514993470145
H            3.13991630624493       -3.42681434293035        2.16658303565239
O            0.57847833722198       -1.84819234357765        3.41947718103296
H            1.27525247584483       -2.49495967004901        3.19787765581955
H           -0.13912080787182       -2.37958456528513        3.80058718517460
O            3.87532928811243       -2.66997337957030       -3.29069051927973
H            3.52134795398206       -2.51800043726102       -2.39023538901178
H            3.29138542215444       -2.18728230473104       -3.88121900451322
