37
 energy: -59.876501209101 gnorm: 0.000504366543 xtb: 6.7.1 (edcfbbe)
N           -1.34827100007362       -1.07455020218441        0.85688701404618
C           -0.81603022324791        0.24685848360310        1.22568227875907
C           -0.67709896038928        1.11990238232163       -0.01928307820625
C            0.43979496914311        0.66887988552884       -0.97570581256744
C            0.04179951904656       -0.55475367961194       -1.81281094778565
O           -0.47665162164220       -0.37291543096280       -2.93548496161759
O            0.22164095877285       -1.69088276757173       -1.30228069138324
H           -1.45805914670204       -1.74625202823145        1.63204626169568
H           -2.27055331369244       -0.96246346868365        0.38178759257901
H           -1.49977191243113        0.72592887382683        1.92761541502942
H            0.15934657796698        0.12697092683318        1.69932989410676
H           -0.44867480951852        2.13645605794138        0.29968041980328
H           -1.62521609539408        1.14152867142645       -0.56062306104388
H            1.33737176378104        0.42205691973191       -0.40569499987123
H            0.66609707333686        1.47516621487273       -1.67557908304947
H           -0.70121478081745       -1.50360321938953        0.16711111565119
O           -1.61394142651430       -3.73133578523304       -0.96448523423129
H           -0.81809890329729       -3.20249128916653       -1.15338921232913
H           -2.26405096462205       -3.40695601198305       -1.60177361687205
O            2.14657989420408        0.07435860341098        2.75569497297900
H            2.46827758068319        0.83238488988654        3.25263063555084
H            2.63695723290819       -0.69563203429200        3.05895545752034
O           -2.67269249006748        1.35111946310673        3.93206326428479
H           -2.14261806248302        1.09380653339689        4.69348165713869
H           -3.53183658398447        0.92831946411615        4.03521985042909
O           -3.10888449253267        4.13302139521662        4.04039223081262
H           -2.91366955063487        3.18153278266328        3.94723045051888
H           -3.06390784969760        4.49973459199490        3.15272523861016
O           -3.66544455705938       -0.68013048385386       -0.60920147116269
H           -3.41857691013847       -1.08674638240097       -1.45915312944554
H           -4.53058156573035       -1.02710709794065       -0.37138481689255
O           -2.74467672695857       -1.87734276997254       -2.93835703134871
H           -1.89650224412477       -1.39222294382236       -3.02797438516863
H           -3.15177754018085       -1.85821896075648       -3.80943700977722
O           -1.78187241200969       -3.60901207781182        1.83232546729800
H           -1.20373418407175       -4.28063605697448        2.20141937067137
H           -1.81485224203571       -3.77679144884920        0.87176495525579
