37
 energy: -59.871600673416 gnorm: 0.000367388757 xtb: 6.7.1 (edcfbbe)
N            0.03189905575143       -0.46605983964250        2.19888778999098
C           -0.39214330780882       -0.76490693795114        0.81930169053226
C            0.21366752743636        0.22940538100107       -0.16440273053721
C           -0.16511934425886       -0.10391440284719       -1.60070585466554
C            0.54287716823910        0.79974913584481       -2.64401002537725
O            1.52255235555764        1.48013352064714       -2.27097734143797
O            0.07785256720096        0.77153148241646       -3.80759891293403
H            1.05694696609480       -0.61375324671724        2.31264424048560
H           -0.18436439850713        0.50442161263832        2.42758385649297
H           -1.47958607513445       -0.72230471315409        0.76109449486071
H           -0.07138468478314       -1.77036196279897        0.55028312478509
H            1.30348396899713        0.22259214008643       -0.10804293299041
H           -0.11809356170197        1.24872777012587        0.04730601887314
H           -1.23842276792174       -0.00776826730370       -1.77682718752947
H            0.12023277971595       -1.13040391912834       -1.84297166054010
H           -0.44757468839944       -1.09514359430027        2.89955468961938
O           -0.34802130874680       -4.19475668339241        2.61046657964890
H           -0.34090700279759       -5.13790457149893        2.78829047725072
H            0.55020490770199       -3.95852580402317        2.30839463622751
O            2.60561966615152       -1.06941567460551        2.97724965961113
H            2.27117743805469       -1.19366786966147        3.89688962884708
H            3.34909968617664       -0.46510292901121        3.02410472709833
O            2.25914264077144       -3.57088520879816        1.90764794624117
H            2.42598029789737       -2.65739944109994        2.21579759955542
H            3.03776783782331       -4.08297561572218        2.14168068605486
O            1.42464869374834       -1.48997771568940        5.35784690151912
H            1.64331396282533       -2.20427237673704        5.96133860329741
H            0.49758060107940       -1.62510462464369        5.09184752479526
O           -1.01497269010504       -2.06042313475893        4.13465770307426
H           -1.97246343443604       -1.98864343971589        4.07398889305913
H           -0.78968023161893       -2.90842657787091        3.69619071023712
O           -2.72826922476267       -2.72320274074562        1.90401584623828
H           -1.93133380667489       -3.27813108216162        1.90448319784141
H           -3.29410236789758       -3.06556100743896        1.21047055078509
O            0.84497896616888       -3.57363220257844       -0.51240319303426
H            1.45858938908182       -3.58723109422236        0.24519816543298
H            1.15003841909701       -4.24876536452399       -1.12161310340180
