34
 energy: -56.705219356164 gnorm: 0.000430443661 xtb: 6.7.1 (edcfbbe)
H            1.50658063570159       -0.16075824341668       -0.23331010792962
C            0.71836300011366       -0.84814558196314       -0.54369062569491
H            0.86984952339495       -0.03301618035801       -2.47200568797433
H            1.13941240237339       -1.84392953858479       -0.67587644054433
N            0.13925281179659       -0.36750168317904       -1.81261046594689
H            0.01073912716375       -1.29950576165088        1.45763249265826
C           -0.36525785358477       -0.87613879279014        0.52747935235611
O           -0.89160027140248        1.39075473884480       -0.07526714052883
C           -0.93636651836336        0.52764745362780        0.84655999612281
H           -0.44380443294609        0.44739342773150       -1.53080996926410
O           -1.42067082721380        0.71940434232535        1.97264080937623
H           -0.45461193517889       -1.09549406716057       -2.25436291089835
H           -1.20766208513730       -1.48887719238464        0.19868968266780
O            0.29047366350831       -0.70643722320997       -7.09868616267340
H            0.39532032468335        0.10916149358243       -6.57376498466337
H            0.88995095636049       -0.61455024217420       -7.84414661096669
O            0.66163052108128        1.63109439422820       -5.59302349501075
H            1.16829157706206        1.47267487565834       -4.77453995205775
H           -0.06496214609348        2.21375840488166       -5.35393553335377
O           -1.38076682251256       -2.41939415433133       -2.93992279061921
H           -2.15113425173049       -2.18624224616834       -3.46609022495621
H           -0.89819365525880       -3.09499214160315       -3.42688221968346
O            0.62311911353708       -3.00594906246178        3.30217929338504
H            0.12870492812043       -3.82671266515865        3.20162299800101
H            0.32355823824654       -2.59960078468356        4.12164288133042
O            1.37562099427800        2.62452775855029       -1.03934113596314
H            0.56120575709188        2.26450014503236       -0.63935516294566
H            1.27672951313889        3.58006934914665       -1.02896108759481
O            3.42606291441699       -3.43507283779727        3.24137414508250
H            3.81650049851310       -2.57999579828047        3.03677165959483
H            2.46249122920399       -3.29984801454641        3.22148788790361
O            2.02261435290382        1.09146431460099       -3.20431895983868
H            2.96575164813195        0.90892345293534       -3.24398116009566
H            1.88712106852823        1.73625406078276       -2.47929936931726
