46
 energy: -75.153701226615 gnorm: 0.000200746828 xtb: 6.7.1 (edcfbbe)
N           -0.47632546576424       -0.91954115166156        2.09390076349217
C           -1.18865372255404       -0.58155086240862        0.85129768134941
C           -0.29244549541083        0.23882201586315       -0.07108094248558
C           -1.07261459683204        0.85631683478633       -1.23758190715990
C           -1.65505869006352       -0.22516824813161       -2.14391572737930
O           -2.74921042406244       -0.74749066648836       -1.83088178439251
O           -1.00065897944256       -0.56446634532165       -3.16358918959034
H            0.38753443484144       -1.44194902405906        1.87246170164350
H           -0.21183019181481       -0.04621896969829        2.59920494497509
H           -2.08358062051960       -0.00502381474459        1.08804984616314
H           -1.50168820898169       -1.49790331089233        0.35028186315345
H            0.50973563689861       -0.38350058189448       -0.47218016268578
H            0.15654459545559        1.05399178630889        0.49830766320571
H           -1.89636300517869        1.46004522198441       -0.85385818610087
H           -0.40689852943092        1.47998267521058       -1.83536531944359
H           -1.08479645587868       -1.51106433714318        2.70705875153494
O           -3.07851318230208       -3.38175723361396       -1.14102885435774
H           -2.96771600327534       -2.46047935289070       -1.43831676376397
H           -3.74680055863051       -3.76240928439871       -1.71822202412498
O           -2.85402250474282       -4.24675559083650        1.49251433472449
H           -2.97269705995313       -3.87545554499099        0.60065614138773
H           -2.40985841443079       -5.09058684268343        1.36966778676767
O           -1.13139189627928        0.04758789688992       -5.93866834230129
H           -1.28650661566946       -0.81943234662529       -6.32972833416000
H           -1.19003485897799       -0.09754093105580       -4.98209611527137
O            1.33558639973876        0.77935275428995       -3.86070991487107
H            1.17627383428669        0.96719574256063       -4.79173982145546
H            0.56346271542739        0.25357510811968       -3.57726951321304
O           -4.25424575220298        0.52343913514420        0.13257898256933
H           -5.12284945584340        0.11388020336566        0.18455090703505
H           -3.78434580294205        0.06964920524017       -0.59259949235647
O            0.22668915862972        1.38942123511331        3.44052262155808
H            0.65361073255352        1.11601327902875        4.27245417505220
H           -0.43734400403981        2.04214583836835        3.67730469651346
O            1.86020169985847       -2.34713836518057        1.38553519437258
H            2.74861808454556       -2.05852648763716        1.61214031513690
H            1.87242809948648       -3.30445140631792        1.30180091109148
O           -1.24531332873386       -2.93266615208061       -4.59429080212834
H           -0.41665333193764       -3.39639151088301       -4.43620462585651
H           -1.20895682754511       -2.12908144088741       -4.04178339219225
O           -2.18150933006149       -2.51447808907501        3.52154779399004
H           -2.99924798850300       -2.12007505210384        3.83669243725288
H           -2.43633489666343       -3.17050671058795        2.84548371016847
O            1.23822327172194        0.37886470785545        5.83540711665914
H            0.61993310964169       -0.06254944555947        6.42651156959538
H            2.05465178171471       -0.12944427957792        5.84586539583447
