46
 energy: -75.156510653737 gnorm: 0.000393250296 xtb: 6.7.1 (edcfbbe)
N           -0.73839201392366        0.04963600204798        1.74169447179786
C            0.51371676740985        0.10734223079893        0.96943618099122
C            0.34168268109833        0.84811344317718       -0.35273856533138
C           -0.52941918327254        0.10256236968377       -1.37340714761152
C            0.09781208288492       -1.22313325225224       -1.78573423367462
O            1.08452004766249       -1.20399664842067       -2.57273857433723
O           -0.37105307923816       -2.28592994365264       -1.31886164102629
H           -0.54991701274646       -0.34535551483587        2.69508927345103
H           -1.16880609537627        0.98404677352163        1.82086739229881
H            1.26863638945424        0.62241112706858        1.56413626506269
H            0.86253931769990       -0.90886367149812        0.78116049696072
H            1.32661163671573        1.01975367746507       -0.78877367481788
H           -0.11718627647693        1.81920035239087       -0.17002310969330
H           -1.52600300079693       -0.08157013149459       -0.97274965711455
H           -0.61956639606929        0.71451893673421       -2.27285585178837
H           -1.41690400135299       -0.59715926487641        1.29438512477379
O           -4.21822262128192       -3.82839093539466        1.42206849533897
H           -3.45197975896448       -3.23671766807864        1.28479013468424
H           -4.35788701722548       -4.27211884184294        0.58150763634493
O            0.08384908532990       -3.58071705000921        2.48770905137249
H           -0.07211224682292       -4.48144936530931        2.78613688381434
H            0.69574090075347       -3.64889447867160        1.73469352062579
O            1.05513676678515        0.93866422307589       -4.39563514519189
H            1.85462854078503        1.40002704679290       -4.11546273334189
H            1.04071657663520        0.12504770031421       -3.86125479373362
O           -2.05535700066753        2.58221318944581        2.13262231305456
H           -2.38655429003863        2.65172544966823        3.03437923519056
H           -1.66828043841145        3.43235458245642        1.90607587967080
O           -0.25984933750261       -1.29789639337305        4.05932856593239
H           -0.00895546150874       -2.12399042308987        3.61114467804194
H           -1.04609431174695       -1.49865082103150        4.57616334725449
O            3.26352057530339        0.50830676596232       -2.16712373298296
H            4.09269200797283        0.02185372709611       -2.19284683083352
H            2.56166553986799       -0.14985147701697       -2.31150787714034
O           -3.33590855504277        0.80625191578870        0.24156741237180
H           -4.29503035400944        0.78480037107449        0.25278668917942
H           -3.06754682537592        1.53362620852893        0.82357193533031
O           -1.89712471083838       -2.34436947714190        0.96066951561570
H           -1.25806057303849       -2.79894049428078        1.54621248946668
H           -1.49032628308886       -2.38406702561002        0.07519138955943
O            2.64372644760176       -3.46462847702584       -2.50287877840047
H            2.53739247005418       -3.95575223336026       -3.32261672665250
H            2.05375300633802       -2.68541588976070       -2.58065104548873
O            1.41638418575898       -3.79486541466967        0.09024946095011
H            2.16928275208504       -3.90262498241692       -0.50434431104528
H            0.73046253855539       -3.37426117445051       -0.46427247422810
