22
	Energy:       2.7611306
C         -0.53056        1.15753       -0.97428
C         -1.38995        2.12919       -0.21045
O         -2.15275        2.86144       -0.81942
O         -1.33271        2.20757        1.13428
C          0.36973        0.31595       -0.05790
N          1.18322       -0.61607       -0.83800
H          0.10519        1.73008       -1.68391
H         -1.19406        0.48090       -1.55517
H         -0.26082       -0.25982        0.65609
H          1.03993        0.98784        0.52375
H          0.56658       -1.27019       -1.37269
H          1.79845       -0.09030       -1.50063
H          1.78404       -1.17285       -0.18822
O         -4.92487        4.60947       -0.73273
H         -4.48888        4.89311        0.10992
H         -5.02283        3.62814       -0.64319
O          2.71683       -3.36849       -2.24469
H          1.91364       -3.15478       -2.78301
H          2.36061       -3.60963       -1.35276
H          0.55390        4.54580        0.19022
O         -0.01647        5.33166       -0.00407
H         -0.70301        5.32252        0.70953
