22
	Energy:       3.3745444
O          2.74208       -0.05215       -3.26446
H          2.40227        0.82654       -2.95935
H          2.17448       -0.28106       -4.04294
H          0.65609        4.54147        0.18059
O         -0.19226        4.97511        0.45051
H         -0.80389        4.82021       -0.31273
H         -1.03867       -1.21506        0.79139
O         -0.74980       -0.98340        1.70969
H          0.03589       -0.39458        1.58128
H         -2.25762       -0.75249       -1.53172
C         -2.01143        0.04155       -2.27103
H         -0.52400       -1.03049       -3.20063
H         -2.68152       -0.09164       -3.14935
N         -0.62542       -0.10819       -2.71868
H         -3.38686        1.47115       -1.43770
C         -2.30021        1.42836       -1.66850
O         -0.32191        1.78919       -0.40778
C         -1.53939        1.70789       -0.40057
H          0.03175       -0.09799       -1.90789
O         -2.20841        1.91115        0.75050
H         -0.37937        0.65203       -3.39350
H         -2.07884        2.22102       -2.41519
