34
 energy: -56.707832605038 gnorm: 0.000298737226 xtb: 6.7.1 (edcfbbe)
H            1.01603180861059       -0.98039985285816       -0.29326453107343
C           -0.00500501994963       -0.92508658831227        0.08735853957041
H           -0.64208035288578       -0.42121178515317       -1.83279138209754
H           -0.42266710419236       -1.93129827083672        0.13659519217723
N           -0.79835572266310       -0.10171495204468       -0.84818176713129
H            0.61316108681448       -0.84422160512420        2.16664579876403
C            0.00475623426125       -0.27470932157581        1.46570842240672
O            0.35824654192448        1.87103138160790        0.42740007361996
C            0.55413064293150        1.18007716526758        1.46094360343797
H           -0.45195840959728        0.87700557204757       -0.67070744689367
O            1.12806640634136        1.57491591122368        2.49050773285608
H           -1.79204469388509       -0.14987078445067       -0.62448205261251
H           -1.00589907725554       -0.21511194191466        1.87730979486397
O           -1.19518165053764       -1.51262409474019       -5.75760809989363
H           -1.84495372471389       -2.15033028158263       -6.06544909901979
H           -0.33477118585381       -1.80624613061113       -6.12132504215084
O            0.83215465188056       -5.00388732748357       -2.36016702773889
H            1.48426914279605       -5.27421729021795       -1.70871795366688
H            1.27962988745437       -4.36478227886119       -2.95358585771735
O            2.35551913353733       -0.47752923155175       -2.28043686342842
H            2.69787983008804        0.41422573915038       -2.19432462073736
H            1.50105990067463       -0.40701831693367       -2.73162379932807
O           -0.32769736319279       -1.39197944891276       -3.19049612699305
H           -0.75396730269224       -1.31682135949636       -4.06829466820640
H           -0.75245400432649       -2.15419547551920       -2.73429007322600
O            1.29591291258286       -2.43788670271135       -6.45941899076096
H            1.99862870775016       -1.88583470031610       -6.81228790758210
H            1.59301635270511       -2.73212966500625       -5.57442844498809
O           -1.31843787962579       -3.44348657930357       -1.74352010286585
H           -0.58939163629337       -4.07888816227298       -1.90027919432032
H           -2.13321716031194       -3.91621695546146       -1.93039825170956
O            1.86967474226031       -2.88724137667275       -3.78826133715990
H            2.58136439811235       -2.41102806985201       -3.34334878010535
H            1.06801390725112       -2.35008821947473       -3.58119573633628
