37
 energy: -59.868012227213 gnorm: 0.002109967849 xtb: 6.7.1 (edcfbbe)
N           -1.30747707131837        0.36573624604245        2.71675486548773
C           -0.82561873322206       -0.37436770562452        1.53672527976555
C           -0.04890426781527        0.54042356729783        0.59737874035599
C            0.48413631228582       -0.22734966812647       -0.60488263912157
C            1.14795363439618        0.67222643966225       -1.66555275179016
O            1.07728098489675        1.91155479130934       -1.53008309885473
O            1.71706742509184        0.09069200011841       -2.62076275989083
H           -0.51343819157567        0.65418784933079        3.31620376034408
H           -1.80978266790405        1.22155773102886        2.41991357438810
H           -1.67754756361838       -0.79371527607649        1.00124350908697
H           -0.18192074343405       -1.19247191527777        1.86043308373834
H            0.79233344163733        1.00210068048868        1.11530761271459
H           -0.68756411874639        1.34517031288581        0.23027356319759
H           -0.31974990527970       -0.75525868812038       -1.12430041681310
H            1.22382221578772       -0.97647341781964       -0.31504305709012
H           -1.95329118866083       -0.22100512586883        3.27969340894371
O            0.77661302825048        1.00549429880525        4.48811263113933
H            1.73227446398128        0.98566236399772        4.39602505877893
H            0.57159448738747        0.90292992136004        5.42266218201044
O            1.04083940469187        0.77568843863319       -7.95394477424202
H            1.62157963053290        1.46942813122106       -8.28172220994612
H            0.95031327288425        0.91176126498742       -7.00563811796190
O           -3.11974705480997       -1.24078688891377        4.10525591066768
H           -4.03736000854038       -0.96569350805204        4.19955638352463
H           -3.09047079866852       -2.19928990287713        4.16174518738383
O            1.23179246112632        3.99180257130001       -3.32202797973669
H            1.20961308402060        3.18849022176976       -2.76407490255535
H            1.31912107307154        4.72582040958900       -2.70379243403495
O           -2.64390912882653        2.70595248966936        1.90076888063729
H           -3.49409700452234        2.79940497964223        1.46393497370313
H           -2.28582416495841        3.58573257256183        2.04257912121030
O            1.43726080441863       -2.60259292554115       -2.90105321988250
H            1.54662863348211       -1.63021975098686       -2.81678132260252
H            1.97145665089674       -2.85492866237823       -3.66052020547823
O            0.64205253531639       -1.78084542199923       -9.23259943283916
H            0.33867735717056       -2.31731219194964       -8.49301425343988
H            0.77141571060505       -0.88794923203390       -8.87669615084141
