37
 energy: -59.873739926745 gnorm: 0.000308261714 xtb: 6.7.1 (edcfbbe)
N           -0.38863484859910       -0.52861490818728        2.39901534444523
C           -0.81350518607789       -0.31917483300619        1.00332934817016
C            0.18035316862050        0.59071933789824        0.27985334233154
C            0.12343593942852        0.41078378571606       -1.23332091287468
C            0.69284469647423       -0.92273260606125       -1.75677688847151
O            1.04578267904747       -1.80501444324656       -0.93501884046544
O            0.75617813886583       -1.04550093705515       -2.99747367042969
H            0.58187526249996       -0.94548751169483        2.35465078103843
H           -0.36352035704796        0.34855277533629        2.91865584013364
H           -1.81508066426312        0.10909070432810        0.96815343122956
H           -0.83299359791512       -1.28677100367671        0.50078817424855
H            1.19401089628938        0.35138372370058        0.60438682214256
H           -0.01806707288189        1.63752940857554        0.51350138300289
H           -0.90367752855378        0.46579773884652       -1.60312314829118
H            0.68775539768485        1.19559874907213       -1.74214618371735
H           -1.00359510643752       -1.21719506672822        2.88674468610572
O            0.74247607524469       -3.84759447478812        3.26731189534151
H           -0.17402448242319       -3.52740419338874        3.19817147541920
H            0.72516005162777       -4.77709477317412        3.02776362970268
O           -1.73595137561115       -2.52151362860980        3.71341174378921
H           -2.67019353293099       -2.72017194898133        3.80908337340826
H           -1.33804424556362       -2.50039199549759        4.60524852095220
O            0.72996617076090       -4.34805403649197       -1.78984625429822
H            1.47641616986164       -4.86688359001518       -1.47177561488818
H            0.90761705317376       -3.41771530540540       -1.51302274238334
O           -1.95872391706602       -4.44419314711123       -0.89783257801348
H           -1.03891241397190       -4.49170802065768       -1.20952548409841
H           -2.49488859713632       -4.30414030256204       -1.68279960872531
O           -0.01003151749603       -2.69272163195211        5.83218795539465
H            0.63523722129203       -3.02678809644900        5.19093613424809
H            0.08792263527814       -3.21788130452833        6.63008493005541
O            1.91367952913512       -1.79534963441382        1.81735345300566
H            1.69038372712746       -2.64108129347251        2.25271413477457
H            1.72451833593503       -1.90627113245385        0.87162861532780
O            1.03041571727872       -3.41491925829218       -4.45565361863853
H            0.88153940233730       -3.97656651840150       -3.67584753364467
H            0.97628717599468       -2.50872262714790       -4.09873693532985
