34
 energy: -56.711114428287 gnorm: 0.002314825906 xtb: 6.7.1 (edcfbbe)
H            0.61151041673525       -1.06631622427972       -0.02967170329192
C           -0.42794414265376       -1.37761750330776        0.08341867404291
H           -0.61738717557895       -1.67472214993259       -1.99406454532308
H           -0.45150709509951       -2.42951675554348        0.36771626577494
N           -1.12511721364696       -1.19531281508959       -1.20051590526724
H           -0.64186338444514       -0.70824362197842        2.13736458738131
C           -1.09715621492059       -0.53338849211142        1.16356206471610
O           -1.11174565832295        1.34859479475665       -0.32527440889847
C           -1.03155914462764        0.98023839675887        0.87334329686286
H           -1.18033924105062       -0.16962457621318       -1.34064845262593
O           -0.92479956608682        1.76310660883931        1.83993011298848
H           -2.09079328355036       -1.56739562667524       -1.13538074821024
H           -2.15640371432616       -0.79202771057335        1.23553707856552
O           -3.73055912481529       -2.21400463800559       -0.94329123568349
H           -4.47142840972394       -1.72949829134988       -1.31853788481563
H           -3.87270066194050       -3.14826788650433       -1.12871297230655
O            2.57260903983890       -1.31889389938277       -3.88161175678214
H            3.16285701790745       -1.58654207664654       -4.59179544335601
H            2.64222080952011       -0.35022713643956       -3.81747433098442
O           -1.02243049868636        4.02294218418279       -0.99495057835158
H           -0.92363065368415        4.47956866180149       -0.15477841830694
H           -1.07036682588812        3.06832533886522       -0.76971550557265
O           -0.26417610030189        0.77642292321868        4.30538996407009
H           -0.51213866708557        1.42973142097497        4.96529424628753
H           -0.49148579925445        1.17857138807803        3.43990856948841
O            0.12433358404975       -2.47843479176627       -3.21203222635447
H            1.01553520245003       -2.13859955961984       -3.39908366258666
H           -0.38503900881194       -2.36022522920116       -4.03298357680468
O            2.68966256232330        1.48141328119386       -3.70689512836845
H            1.94819228972511        1.97911525446524       -4.06685145103472
H            2.88519147506048        1.85653031124764       -2.84345839546354
O           -1.48767707821775       -1.91623012784183       -5.44141677225483
H           -2.33994545865275       -2.34067594219279       -5.58492525839535
H           -1.56760227614852       -1.00071150977384       -5.72845449925831
