37
 energy: -59.880645233238 gnorm: 0.000205092825 xtb: 6.7.1 (edcfbbe)
N           -0.58526983084948       -0.06677460848320        2.52873943541025
C           -0.67004567477216       -0.06084478099869        1.05747357774337
C            0.40051907062824        0.84267415370194        0.45419656684247
C            0.39191317057505        0.79662184076698       -1.07061653763525
C            1.13118555851618       -0.42618175324800       -1.67567949047472
O            1.97687864464094       -1.01490568749619       -0.96421825318724
O            0.85206674321096       -0.72040785080074       -2.85609067098600
H            0.35955393659246       -0.39953497497242        2.82004265741304
H           -0.73306727245016        0.86999447116392        2.90409546102856
H           -1.65701639492553        0.28407285732794        0.74748400871181
H           -0.52952096878842       -1.07930417600990        0.69504750693053
H            1.39006642590667        0.51308264361401        0.77681858879804
H            0.24711952948633        1.87375077040077        0.77831598743577
H           -0.61895664628398        0.79953474105804       -1.48166032282489
H            0.91439412326184        1.66462785635561       -1.48295108822558
H           -1.29642004994082       -0.72360689500785        2.96167910176512
O           -3.46947782704263       -3.72900137080544        2.15895233513354
H           -4.16496143444334       -3.46768911483737        1.54836096556637
H           -3.76694712369395       -4.52579254258476        2.60943062078008
O            1.85326376956683       -1.15268782894974        3.23267645078573
H            2.71160535342885       -0.80192990739471        3.47686137722998
H            1.98700201891569       -1.73161302120294        2.44501759911836
O           -2.24353088337803       -1.75837999838337        3.82968038382786
H           -2.72066951958094       -2.37734698951236        3.25406917177156
H           -1.54754411411532       -2.28363310337848        4.25643997692900
O            1.96907597176971       -2.79779488254782        1.10934785417217
H            2.11366237042990       -2.24505270271457        0.32250721174682
H            1.01627992350264       -3.01592907063483        1.09119980706508
O           -0.69043156675907       -3.20091077444145        1.59264540932337
H           -1.58845426340748       -3.55206314525231        1.56530966965675
H           -0.44789632652801       -3.18218728251424        2.54648546584006
O            0.18801645065755       -3.14104616117320        4.19984709167324
H            0.75255816779941       -3.91718000340957        4.05255725708955
H            0.79217499977544       -2.38332777263124        4.08908544251989
O            2.00816059426965       -4.91566992377514        3.04780362508222
H            1.87796634000947       -5.75771027436283        2.60453501297524
H            2.21646173403381       -4.27158773686456        2.35255174292976
