37
 energy: -59.877009796192 gnorm: 0.002823574328 xtb: 6.7.1 (edcfbbe)
N            0.25099379644532       -0.81584503776250        2.32483046870582
C           -0.01630099786115       -1.26612724745549        0.94602422969610
C            0.25212243871686       -0.10162945112373        0.00040884016125
C           -0.39221435486362       -0.23959921965270       -1.37083139526319
C           -0.24531354317743        1.04589360610203       -2.21296734279175
O           -0.07916038191771        2.13699446155521       -1.60086897759351
O           -0.31431091894687        0.94023412408880       -3.44932298938794
H            1.16213801154853       -0.30759719550242        2.35178574696253
H           -0.47931083633139       -0.12930499697378        2.60575766888912
H           -1.05550211227470       -1.58359331327939        0.86330646548915
H            0.62944688615259       -2.10936982375854        0.70269501204391
H            1.32601815325983        0.02785038115425       -0.13196705746963
H           -0.14102652668823        0.80804599470770        0.45300792681024
H           -1.46847301728490       -0.41263866023012       -1.28104229782539
H            0.02963755700282       -1.05804897648472       -1.95614931950139
H            0.27164235670447       -1.60544822261907        2.99087558894247
O            2.49722173448818        0.82330275144757        2.26345480558152
H            2.64179670817105        1.38923513870726        3.02799291160601
H            2.37781803835874        1.41777654275678        1.50469476517061
O            2.10257616864471        2.57540576818165        0.06059450825250
H            1.33838031703004        2.44610019658458       -0.52888270083440
H            2.76437860113686        3.04181356294277       -0.45737805172081
O           -0.02676401802753        1.45968770546919       -8.36238299243857
H            0.72081268029650        1.44581997175384       -7.75606052241274
H           -0.75657384895149        1.87513284540219       -7.89323461802809
O           -1.68226751599513        1.13001368550048        2.75539070663709
H           -1.65702574263092        1.75583036118865        2.01170009549772
H           -2.60412073637951        1.03858849941462        3.00677518944231
O            0.49614406314703       -3.05138854013892        3.99759670814484
H            1.37518774549214       -3.27253614873416        4.31983937316492
H           -0.07140647002242       -3.81650255598597        4.12961726441653
O           -0.49332693686900       -0.84822314621917       -9.99259829100943
H           -0.30417328933030        0.00169120405164       -9.56378281241468
H           -0.79248228202697       -1.43710522114759       -9.29269737700005
O           -1.59513735984593        2.88793486466811        0.57132698737470
H           -1.46414095413570        3.83481359210377        0.68152502630930
H           -1.10241441304284        2.64049249932123       -0.23515854384584
