37
 energy: -59.875795024829 gnorm: 0.000581299972 xtb: 6.7.1 (edcfbbe)
N           -0.96293627129017       -0.54909000034973        2.00664724480262
C            0.38423062940609       -0.14378308759401        1.55316417024727
C            0.31227522013434        0.71797090821113        0.29647172324328
C           -0.32606078349256        0.01212750639827       -0.90407586215953
C            0.59707355329486       -1.08021163688674       -1.49766933061587
O            1.63276050852153       -0.70573184755628       -2.08121706171774
O            0.23692995041979       -2.27603183631589       -1.35706025561786
H           -0.99042944061627       -0.72198202959745        3.03885801290272
H           -1.64320095321123        0.17510407262319        1.77751533965957
H            0.87747850002613        0.42247819828879        2.34358496994367
H            0.96973312773615       -1.03870736701512        1.34458559093184
H            1.32380102433385        1.00951384819499        0.00629947514767
H           -0.24916028919186        1.63087712303829        0.50931530647205
H           -1.28395103973681       -0.44475266243823       -0.65713644335332
H           -0.47963657655095        0.73861861582394       -1.70533280940051
H           -1.22353540093922       -1.45355764121578        1.52490303443324
O           -1.20553996587721       -2.94449357458900        0.82845838249375
H           -0.49931641296205       -3.34702374177066        1.37256231299314
H           -0.78033336651334       -2.78865320795305       -0.04117828356622
O           -1.38498920325240       -3.68048408557988        4.11070114084292
H           -0.55193002172124       -3.84220955777106        3.63062672797810
H           -2.08340377522199       -3.87530273332061        3.47783087078324
O           -1.26743818943382       -1.07010691873758        4.68793873224287
H           -2.10318776429981       -0.81677530067914        5.08857478187108
H           -1.28365572144094       -2.05210637481032        4.59593488878327
O            1.18373894129668        0.20192586254027        4.69881991182872
H            0.31139888431646       -0.21159236116450        4.84529975734754
H            1.40026814989808        0.68740992869205        5.49860527272281
O            2.48782298982273       -2.02506651109556        3.84116122888818
H            2.08503445943319       -1.16194933729535        4.07785802569424
H            2.71020511625977       -2.45225309418094        4.67376029288323
O            0.85650803918414       -3.74996237394119        2.50359241683951
H            1.39190968027254       -3.05048381805185        2.93983489891403
H            1.50255213979720       -4.34591573779141        2.11532201671688
O            3.84977881303132       -3.43053663308682        1.78408695039711
H            4.25301590354889       -2.93475100275749        1.06792649701684
H            3.56284054500054       -2.77752259026032        2.44428907142585
