34
 energy: -56.708378656371 gnorm: 0.000408941165 xtb: 6.7.1 (edcfbbe)
H            1.09026260106932       -1.21339877239781       -0.94027144720821
C            0.02282554155331       -1.02516569300209       -0.81967130345912
H            0.09107467506782        0.01612924255054       -2.64522318779599
H           -0.53007355799683       -1.93611559907171       -1.05273061786224
N           -0.38194484050111        0.06077521637661       -1.73255256337276
H            0.05796249043236       -1.38530674829156        1.32023132366729
C           -0.26232651751979       -0.61391520115734        0.62213914332576
O            0.43010284675343        1.64920942539618        0.20606863861456
C            0.43639948457568        0.70660284889593        1.04106613117278
H           -0.12081997148263        0.94457741755809       -1.22663114817110
O            0.92819650421569        0.76123639120361        2.18250675751640
H           -1.39831030378251        0.04034225724073       -1.93476809350028
H           -1.33216213311948       -0.44743620577001        0.76333322924586
O           -2.35290836086762       -2.97186900692510       -3.19011450169407
H           -1.45804542140296       -3.00420079140703       -3.59100258250679
H           -2.24582369798460       -3.31971724801708       -2.28868831285366
O            2.72665261601619       -3.31365035130589       -5.16327321935447
H            1.76639980808418       -3.17030892414266       -5.05631176317779
H            2.82573530836408       -4.15003718614256       -5.62518097893814
O            2.41904755807071       -2.71106005236968       -2.37812504338502
H            2.72678591843416       -3.47703248710646       -1.88606154254163
H            2.86461714536341       -2.74695798589971       -3.23963644219000
O           -2.77288235832087       -0.33686167414129       -3.07558059947862
H           -2.69932436542833       -1.32267729979328       -3.12934845388199
H           -3.70832479881597       -0.13317148793265       -3.02889491978337
O           -0.38244977618436       -0.01660787865888       -4.52527762839587
H           -0.28382361101538        0.54441176674456       -5.29707317216592
H           -1.32156499631632       -0.00628422172849       -4.26932505927510
O           -1.97129899338514       -3.87788451805647       -0.55521529413886
H           -2.74505309025735       -3.89419859652695        0.01551185674705
H           -1.49339218135558       -4.69903519275770       -0.40422738333858
O            0.21382066157308       -2.66528052857080       -4.10552242811489
H            0.06749642550076       -1.72909753874222       -4.34456389672339
H            0.80185239069780       -2.64145737608531       -3.32886649698483
