37
 energy: -59.879810813399 gnorm: 0.000168006230 xtb: 6.7.1 (edcfbbe)
N            0.98478569786104        0.78966153655725        2.13684203306945
C           -0.10923010015757        0.37695199129416        1.24586392350634
C            0.20409213076429        0.79537967096446       -0.19045243573455
C           -0.51437154184228       -0.08965383459385       -1.20149824406000
C            0.07596667655675       -1.52081524441039       -1.31788839438008
O            1.17683090767397       -1.76206829207874       -0.77156004611148
O           -0.59376691149228       -2.34545106525726       -1.97501441126044
H            1.84086704201933        0.27288573161368        1.83620636231393
H            1.19160360736450        1.81492185353236        2.06685025654494
H           -1.05126388701332        0.81803614945027        1.57142433902685
H           -0.20355355892668       -0.71030091644605        1.27846560441696
H            1.27245439316640        0.68399994596402       -0.37345002192827
H           -0.06664072895733        1.83751620357606       -0.35740243788450
H           -1.57602635757474       -0.20199495982714       -0.97151346406201
H           -0.44551319112458        0.33211763064669       -2.20763157141213
H            0.79795749201633        0.56446653461288        3.11660478791522
O            2.84293339025194        0.28461986584900        5.34293968917888
H            3.72377353561092        0.66878813279926        5.37001361667336
H            2.22650721979215        1.02414322714371        5.17537105337412
O            1.97753603782655        3.34156815770192        2.11211307967510
H            1.64561090314265        3.85645104457017        1.36727236705621
H            2.80635952259057        2.94719468958352        1.78047749062819
O            1.14008888681769        2.33397538910930        4.62761608749873
H            1.48032870483856        2.88486086079928        3.90393544719046
H            0.58892025461717        2.89733082991804        5.17458982432088
O            2.24205847135033       -1.62946601388775        3.48448579357994
H            2.48843740914126       -0.99454719072017        4.18991918214593
H            2.03149302790145       -2.45391658281536        3.92478875511080
O            3.93451310089162        1.92714174867789        0.73943734643182
H            3.68249548057364        0.98648820826937        0.75916219831110
H            4.89128948822265        1.94980465428572        0.81979962934550
O            2.07565343436889        3.60035684192549       -0.70821423563155
H            2.25491560444149        3.83982382056580       -1.61899522428005
H            2.77630299247722        2.98403169537686       -0.43818806894537
O            3.02439157131274       -0.70335727492812        0.99001400739306
H            2.46182074267711       -1.13318523771840        0.31931781631079
H            3.01352055076560       -1.28986880210835        1.76527886465698
