34
 energy: -56.711021792698 gnorm: 0.000196549901 xtb: 6.7.1 (edcfbbe)
C           -0.29852905468643       -0.68991761084360        0.90876752541486
C           -0.13459627367612       -0.26618266081555        2.38053528022900
O           -0.01792225325805       -1.21783581871222        3.20560536263926
O           -0.11921571015848        0.93886546277281        2.67245461400417
C           -0.40724875281302        0.47779117918225       -0.05364438470608
N           -0.49351774690992       -0.04135384013163       -1.43276226906407
H            0.57175079482851       -1.30073278592517        0.66668484776239
H           -1.19336209229010       -1.31169013528106        0.85764341606697
H           -1.29034046615296        1.06880988578178        0.19033980471152
H            0.46719964049609        1.11969294840430        0.05892317713439
H           -1.31159620120161       -0.69565483227803       -1.51631402898482
H            0.35157701428683       -0.63423907612721       -1.63353595996515
H           -0.57013151636011        0.71468845076991       -2.11215470702864
O           -0.28553490463754       -3.75739770317320       -0.66454448873609
H           -0.34650786215917       -3.57980477453355        0.29654576903238
H           -0.07159381070594       -4.69791721437553       -0.70914706244133
O            1.43010974068155       -1.93291912805807       -1.78562395813824
H            0.89043221498533       -2.64491798321252       -1.38206503541014
H            1.72513606637073       -2.26015692497324       -2.63991516267720
O           -0.45834783943172       -3.65510197759361        2.07958463108930
H           -1.39883462365804       -3.77703606285968        2.29155975810409
H           -0.20697090892032       -2.81895149156509        2.53069577860280
O           -3.23680411612070       -3.83153725016001        2.55915801886111
H           -3.64381374501787       -3.45859831611914        3.34591744895287
H           -3.80734874642314       -4.54264274292920        2.24812283701337
O           -0.26124253275393       -1.14081081157164        5.94614787841790
H           -0.19978865672868       -1.07217453377054        4.97092511066042
H            0.55409661716118       -1.57168218590424        6.22289601273677
O           -2.29404310341413       -2.08253181747152       -1.60417674340748
H           -2.67986324535257       -2.40353747122834       -2.42388787786357
H           -1.67302135407007       -2.76937957560075       -1.29627138218217
O            0.79417717712912       -5.93321311604253        0.91103891071210
H            1.70450335090179       -6.04605760603771        1.19717033249274
H            0.40517990006359       -5.27138147963437        1.50597054593929
