46
 energy: -75.155428741129 gnorm: 0.000714057599 xtb: 6.7.1 (edcfbbe)
N            0.74793966203625        0.02449140228138       -0.33694210955521
C            2.17467176083353       -0.16103811859294       -0.02756900097957
C            3.01042304283096        0.64835746059705       -1.01713373231340
C            4.42590712998562        0.91779669760611       -0.50648548684823
C            5.14626082941439        1.86993715946610       -1.45965624874846
O            4.71924192347797        3.03866661294094       -1.56868271377098
O            6.13339354355733        1.42650534902332       -2.11087890350114
H            0.50521052165263        1.03021799672762       -0.21719954920022
H            0.55437151291357       -0.24290303851485       -1.31816882680831
H            2.43721332508055       -1.21594699440165       -0.09246095682996
H            2.37160964380452        0.17866986840029        0.99042093790630
H            2.53339009589687        1.61365310481996       -1.18557861904373
H            3.08015174744900        0.13182334311367       -1.97578843165854
H            5.00228352152349       -0.00365379490629       -0.42434931550619
H            4.38365195105261        1.40316429195356        0.47056106754667
H            0.11329855020427       -0.51926018425031        0.28777377616586
O            0.19868807462300        2.73097153120195        0.11080468860418
H            0.48990950122479        3.01046435033049        0.98396231154365
H            0.75434082102026        3.21656051836503       -0.52287928345616
O            2.09707367174080        3.98223476480675       -1.49499248906622
H            3.03239654447138        3.71508374999842       -1.45016972492611
H            2.04913149310924        4.65859231090946       -2.17563626364260
H           -1.90311065206087       -1.70738196558186        0.74785065607037
O           -1.34969608385016       -1.00321889376938        1.09526055249727
H           -1.82155712673448       -0.16536438500308        0.92666042079774
O            7.56411595886444        3.00478757196747       -3.86450645072443
H            8.39992478857993        3.19971540500828       -3.42882225708595
H            7.05487299399117        2.44866426457404       -3.23758692927790
H            0.38820907594832       -1.52655172188165       -3.40420056735580
O            0.21193610723296       -0.66370264550757       -3.02049982013185
H            0.34198197154118       -0.00578139168934       -3.70773298785207
H            6.15511211911053        4.35613179984612       -4.00222472986622
O            5.37409152590077        4.79839925419668       -3.63358138148961
H            5.13393356695508        4.24104980924267       -2.86838059324934
H           -1.55633416064011        2.01774938240168        0.15132978090715
O           -2.33185381429579        1.43617022313382        0.20408763105954
H           -2.83834594253366        1.58465298562283       -0.59889071872702
H            8.33719388715000       -0.82812288913543       -1.38544897471164
O            7.60722869474518       -0.56498410895487       -0.81609250060949
H            7.13463253096261        0.14382694699727       -1.28953637370173
H            2.22827125312489        0.09823118667171        3.94435834086849
O            2.92841618486753        0.12238519082492        3.28372041890984
H            3.63628879277712       -0.43911735656966        3.60949660339221
H            5.32559219959948        0.12535265932889       -3.25850256944274
O            4.81094661462916       -0.52027430621641       -3.76426736172091
H            5.34501144419326       -0.74929223244777       -4.53097477640476
