37
 energy: -59.877141585698 gnorm: 0.000596205572 xtb: 6.7.1 (edcfbbe)
N           -0.47822972905074       -1.39687359805317        1.27063622730567
C            0.75604887380215       -1.12041369179633        0.50266198181724
C            0.86581350953170        0.35238950301231        0.12136067994865
C           -0.13725239086101        0.77169414790346       -0.95007471114409
C            0.25866853076798        0.24567338227597       -2.34428495651033
O           -0.66805282971612       -0.27422105169908       -3.03383244603180
O            1.43200384723762        0.36541482417140       -2.72365865251336
H           -0.41637240827798       -2.30843783028868        1.72885949905592
H           -0.62709141504926       -0.67225665192614        1.97690361076817
H            1.62383329553678       -1.38774532427437        1.10667691252610
H            0.76078483524091       -1.73102635936689       -0.40096420639215
H            1.86428266135733        0.53427776319309       -0.28248171203851
H            0.74111324574536        0.97757749282843        1.00684302990364
H           -1.14985879447049        0.44706933942027       -0.72073399083924
H           -0.13981168832528        1.86046087572114       -1.04299671182816
H           -1.34334999393736       -1.44579168181473        0.63694231537396
O           -2.62017227541731       -1.81330388753328       -0.23329460313496
H           -2.26163688923783       -2.39612543323332       -0.93818354549506
H           -3.04227648966496       -1.09145314948510       -0.73446173732287
O           -3.27218627084156       -0.11753654240759       -2.29600831228726
H           -3.65537852341337       -0.78745767979097       -2.89244773348738
H           -2.32375025715002       -0.09864378965327       -2.56056825255215
O           -3.70737061607146       -2.10747687169520       -4.19243862511151
H           -3.08564131453720       -1.59687796689988       -4.76256733641557
H           -4.40500376272837       -2.42919212727800       -4.76892876790783
O           -1.95009950891407       -0.53610330534549       -5.48679682554550
H           -2.33590643811881        0.35146212015472       -5.62939941517138
H           -1.31961751625114       -0.42564848875598       -4.75312441956130
O           -1.56940417063738       -2.86990913185410       -2.48982001529702
H           -1.11089261039086       -2.05213772239197       -2.74978238782871
H           -2.33550300864075       -2.90725657044952       -3.08614407793858
O           -2.94768903428970        2.04812617365468       -5.59579925369720
H           -2.32409821491464        2.77071004232809       -5.70740824674590
H           -3.38298622165687        2.19701623784216       -4.72812965343387
O           -4.10174791463940        2.31994485082238       -3.13238992029633
H           -3.82037712969611        1.45868250796558       -2.74672958601999
H           -5.05966438235837        2.34899759475297       -3.04953415419604
