37
 energy: -59.875291662886 gnorm: 0.001491755848 xtb: 6.7.1 (edcfbbe)
N           -0.37313484117943        0.01311598223844        2.33201869639902
C           -0.04324583318836        1.19285505369553        1.51324054205602
C           -0.98367380583581        1.31928173135740        0.31912928729386
C           -0.71498768679597        0.30057784387757       -0.79621790225420
C           -1.43177774627349       -1.05385388138444       -0.65140880524469
O           -1.97475037250249       -1.53523648671855       -1.67329825322324
O           -1.41425798736917       -1.62653647448866        0.46276100540125
H            0.43196145040428       -0.27966464469222        2.92909606067551
H           -1.14063152103967        0.22603266011158        2.98934444118269
H           -0.12724310991659        2.08439507988377        2.13397652905172
H            0.98352043386338        1.10562197862834        1.15551174715893
H           -0.86197762057200        2.31407739490379       -0.10963759451457
H           -2.01940106771058        1.22553304488448        0.65113779314509
H            0.35267210214400        0.07791483840946       -0.85125576233162
H           -1.01069259420778        0.71621197635333       -1.75886647887898
H           -0.68977180004304       -0.76197695062578        1.69634074218354
O            1.94616402732279        2.20911526469115       -4.32567138486183
H            0.99159491709088        2.29400133014839       -4.16827809138563
H            2.05756604618974        1.39370067791455       -4.82397170283829
O           -0.87998755849014        2.16726463446284       -3.99473123065807
H           -1.35687895395745        1.31897473850623       -4.05464982928244
H           -1.50373409234937        2.84329346880275       -4.27835353486457
O           -2.23685677562493       -0.25794461039718       -4.03591322960717
H           -2.18163105916813       -0.94791840619924       -4.70436545120027
H           -2.17723666406828       -0.72135286132136       -3.16897709443514
O           -1.64274589907460        0.57736972889782        4.74560080239040
H           -2.23043596631962       -0.00997819435047        5.22893084979336
H           -0.77479549289013        0.50813277358545        5.16228066777576
O            3.39670886748264        1.39483933873045        3.43737368215290
H            3.35896587367332        1.39792548012704        2.46308674861424
H            3.33964822511422        2.31282619144962        3.71734422743156
O            3.25259889659668        1.34320379626962        0.64655335415686
H            3.42959638491374        2.13098331197449        0.12246764929471
H            3.75005296677674        0.62452764296872        0.24701626472119
O            1.56313619766306       -0.47016669805112        4.20683363662970
H            2.01176335735357       -1.31324854998251        4.30544705934342
H            2.25720170194599        0.19282979533392        4.01246755878462
