34
 energy: -56.711044585410 gnorm: 0.000317357291 xtb: 6.7.1 (edcfbbe)
C            1.07975172022404        0.23714244834422       -0.07032526355191
C            1.44798377606648       -0.12617378376095        1.38948255874552
O            0.83990084457334       -1.10389480873553        1.89568784936522
O            2.30734895240120        0.56196221475626        1.96791935095045
C           -0.36611994141892        0.70528342790831       -0.15151005005744
N           -0.83752277656650        0.76095788919157       -1.54797293321819
H            1.77084706488618        1.00714870152570       -0.40851373227777
H            1.21286079375225       -0.66895986509383       -0.66185488197434
H           -0.98930365566567        0.00651290130056        0.40890957262030
H           -0.45704208692717        1.69190584760792        0.30316103809573
H           -0.93502358214587       -0.20728816875446       -1.91989200884681
H           -0.17283051440327        1.29168165794124       -2.14721503213142
H           -1.76632205320550        1.23838233700610       -1.58299565594152
O           -2.20371861203353        3.54279342659201        0.89381303066541
H           -1.82012163996113        4.42369019969248        0.84673861282928
H           -2.53184207127801        3.42127336787779        1.78921705724945
O           -1.11589124447751       -1.90943766760477       -2.19414092990664
H           -0.60229541446316       -2.42272280659345       -2.82329515035665
H           -0.93201819617154       -2.28602899295743       -1.31406622257433
O            0.70663206271561        2.26710751480547       -3.33540137920731
H            0.50097339401672        3.20242778924711       -3.23879565297467
H            0.27588672919652        1.98630002864395       -4.16617177949687
O           -0.42139884641354       -2.85590993111852        0.29935778427824
H           -0.89107845417965       -3.45305661088876        0.88759676970313
H            0.06053452647104       -2.22586430672367        0.88506689379899
O           -3.17513469041277        2.19372489401455       -1.36571562498832
H           -3.99069338064739        1.74609939195134       -1.12451649194917
H           -2.90702979819550        2.72859708256550       -0.59953892983043
O            3.36154472280558        2.24207520377861       -4.30320474548233
H            3.95631532116892        1.80142873620724       -3.69066254689236
H            2.47385710835851        2.19847231492592       -3.89919759151944
O           -0.59862548039397        1.47639188657129       -5.63356827138579
H           -0.25258312180775        0.76811711019273       -6.18313268413869
H           -1.54586745577450        1.53252756956303       -5.79349295946565
