34
 energy: -56.704307620525 gnorm: 0.000484851636 xtb: 6.7.1 (edcfbbe)
C           -0.23723013193316       -0.80822291839787        0.12338683177879
C           -0.14699703845367       -0.49079027948333        1.63466763763119
O           -0.26389929396450       -1.46395003601296        2.41259369448984
O            0.05246578068942        0.68950516553008        1.98818049018249
C           -0.94492411808215        0.27821358916318       -0.67226751902354
N           -0.88260523347213       -0.00774566322217       -2.11777902936033
H            0.79410064691160       -0.91509929153303       -0.22022472031841
H           -0.73664809406810       -1.77402069622934        0.03809268104754
H           -1.98496419640987        0.34923865417007       -0.35142882249728
H           -0.46032608847215        1.23414462962434       -0.47561682037160
H           -1.31740993199196       -0.90850737471520       -2.31910799358785
H            0.12106048983671       -0.03771158985228       -2.42932976272882
H           -1.37408057618362        0.74524083848284       -2.67351427336961
O           -0.05307120538694       -1.67938974460009        5.14001125170169
H           -0.36129447960783       -2.58540124275361        5.24679992101290
H           -0.10095765762086       -1.50496155711157        4.17659392837046
O            1.45026579920161       -0.35798321148894       -5.76900690604413
H            1.25912728486541       -1.28910332871094       -5.92697108908876
H            2.23268794451660       -0.13759584526453       -6.28476656257261
O            1.43071749920864        3.01880351870828        6.87855424647159
H            1.24431681706220        2.79043547140719        5.96256962845715
H            1.33481779152723        2.20783278147623        7.38784642115301
O           -2.03429338043540        1.89170504161915       -3.64470870728300
H           -1.58954746371178        1.78322172757029       -4.51182932936189
H           -1.90507493028948        2.80676899730188       -3.38269851213341
O           -0.72205268677021        1.45189406310685       -5.99863401728412
H            0.03254353947765        0.84634515714791       -5.89659672729093
H           -1.22485683219841        1.14376036405755       -6.75761876917118
O            1.69207428167031        0.00153901667618       -3.01124899257003
H            2.16324068311071        0.82012042229902       -2.83446627853749
H            1.63457902327841       -0.08737627340707       -3.98170980773194
O            0.72062153441356        2.96074950354307        0.58880673496640
H            0.55622137748186        2.17489325392997        1.14544509393093
H            0.57927384580809        3.71952085700131        1.16124607914539
