46
 energy: -77.080837377109 gnorm: 0.000321328413 xtb: 6.7.1 (edcfbbe)
H           -1.87453719551805        0.25643936782510       -1.01312350409156
C           -1.40848590799682        0.66570571265417       -1.91059287500316
H            0.08159343217193       -0.74372883226385       -2.35488597662609
H           -1.94597904238173        0.29992054791589       -2.78538189898683
N           -0.00430280693723        0.22227099237487       -1.97728245916792
H           -2.57759493498755        2.46392784910452       -1.93593144756375
C           -1.52219751350199        2.19114955161878       -1.90854712710899
O            0.29690044464815        3.23555285466417       -0.75290549385759
C           -0.88755024848476        2.83724736906868       -0.67371931196104
H            0.43646902607124        0.19888714540125       -1.02589032130316
O           -1.58097568608522        2.94127128535839        0.37079339297224
H            0.56054768564672        0.87299405907683       -2.55755055531530
H           -1.03021984451825        2.59805841113894       -2.79269084616740
O            2.30903467835724        2.37502715051957        0.91233008757288
H            2.21766077642935        2.72231879001825        1.80380293981843
H            1.61456128362830        2.80351994372616        0.37568724809060
O           -2.36522492508968        5.08913827793624        1.99401719030624
H           -1.95887839651256        4.34805818289895        1.51295825594414
H           -1.77389843917428        5.83934216072053        1.88468212161487
O           -4.32923274087866        3.11460001937889        0.52500752622553
H           -3.36025205236906        3.03350483462160        0.42547032777062
H           -4.45453686152799        3.89367151182607        1.07653990521201
O            1.34697817985578       -0.14481178971768        0.35717048627206
H            1.98297161121784       -0.74652439200914       -0.08594183420273
H            1.83724508407230        0.66053596579887        0.60149281808513
O           -0.57422402107505       -1.42861832238877        1.99667411861180
H            0.16340850339357       -1.01726316943483        1.51272718892860
H           -1.33580406525077       -0.85820385836553        1.80950395905258
O           -2.57635298621251        0.45536590023765        1.20349610327534
H           -3.47284836136613        0.62342608863209        1.50901456603386
H           -2.18861342094719        1.33133701581160        1.03764191833345
O           -4.96127403105080        2.70746473259040       -2.15338963481765
H           -4.85419287707330        2.90308506742074       -1.20437452031844
H           -5.68491434852451        2.07588269532796       -2.21040239098355
O            1.52985398545008        2.30454138036130       -3.03096309441459
H            1.21212713238725        2.78607831522040       -2.24146041768745
H            2.49006115591660        2.30877948924347       -2.98847069311927
O            0.90065051597835       -2.21376492149537       -5.58760472338404
H            0.27188826282466       -1.75282227423404       -6.15159551671945
H            1.78076268342813       -1.91923176113362       -5.84088061855227
O            0.47077784555284       -2.35611564269042       -2.87380035982985
H           -0.14440976278256       -3.06605854281967       -2.66884550775820
H            0.62049517299499       -2.37647298586712       -3.83846512140310
O            2.68971483103168       -1.95019381044299       -1.18676225037476
H            1.96838411337538       -2.13402781954377       -1.81803839858694
H            2.92257225173917       -2.79271816974855       -0.78839956278861
