46
 energy: -77.076006477427 gnorm: 0.000233274584 xtb: 6.7.1 (edcfbbe)
H           -1.94723950808151        0.56500388925127       -1.09327132131160
C           -1.42847894548569        0.87659684528654       -2.00060285458933
H           -0.13461362646423       -0.72844175650931       -2.35032165961168
H           -1.99988569681891        0.54476525589199       -2.86757850346478
N           -0.09016216987439        0.25621949514496       -2.03191711670784
H           -2.35901380650627        2.80698372414995       -2.09418888733062
C           -1.34615273081653        2.40148803184265       -2.06400286687539
O            0.53122607017402        3.48712363401901       -1.05625262041466
C           -0.62871108011415        3.03402893352455       -0.86867575072925
H            0.35195342408045        0.23501828853301       -1.07914133184418
O           -1.21528343051791        3.08412073370857        0.23630463749220
H            0.55312137740483        0.79109660114925       -2.64814145318025
H           -0.82294100794859        2.70610508670679       -2.97098974145286
O            2.64074198773862        2.31277239019850        0.28532010936772
H            2.96533787728470        2.83361896416796        1.02447722372889
H            1.91692446226587        2.82597231239211       -0.11766349986647
O           -1.95723699621714        4.85179419690676        2.35476709965529
H           -1.51184698096127        4.26983965407455        1.71890586042757
H           -1.30165656989004        5.49254304302601        2.64437493597486
O           -3.94228740913204        3.46818648941334        0.57300441098080
H           -2.99262820580691        3.31855876225899        0.40414355702532
H           -3.96057448879458        4.15481434300050        1.24866759582741
O            1.30082515927140       -0.09360571882792        0.27802722901445
H            1.83970974077573       -0.78949849189933       -0.15453758400901
H            1.88225135578469        0.67944980900822        0.38518370757244
O           -0.63276145969904       -1.22435089852960        2.02749082336316
H            0.12496429390681       -0.85618539268745        1.54192644086767
H           -1.37348214968016       -0.64274244430808        1.79264888261547
O           -2.49729723608062        0.70803231816820        1.07943483670295
H           -3.36341046698338        0.99405517135928        1.38536684708077
H           -1.99469716217888        1.52487506100938        0.92231589582521
O           -4.58137058825402        3.51131700877301       -2.13195935460284
H           -4.47469262827520        3.56819423965419       -1.16456889087462
H           -5.41622281598040        3.05575834861575       -2.27765670900051
O            1.68090946977203        2.08721900812158       -3.16867273092340
H            1.40671436767976        2.69022459655296       -2.45255240032164
H            2.63819945324797        2.01951394226596       -3.11676182215757
O            1.52205836096766        6.13394005509420       -1.04752648794332
H            1.37663954225597        6.45962952278979       -1.94150470686878
H            1.16754570546149        5.23003781556733       -1.02815381785386
O           -0.03781292719052       -2.46557825682010       -2.74517076472323
H           -0.70318692423796       -3.00271480331264       -2.30295873321402
H           -0.03616362367484       -2.71106001354380       -3.67558269950975
O            2.36872371108325       -2.10844759113290       -1.23149222389149
H            1.59955269890897       -2.28569851672133       -1.80007760300853
H            2.60357194279107       -2.94315500252567       -0.81814633590568
