34
 energy: -56.715937104450 gnorm: 0.000553716583 xtb: 6.7.1 (edcfbbe)
H            1.10829435864612        1.32234662927022        0.44005884972529
C            0.96110971511072        0.62613590306011       -0.38736501631433
H           -0.08116752158004        0.70954340944033       -2.20836310346071
H            1.87658419427707        0.56712000082340       -0.97681047297111
N           -0.13876158577278        1.11350183996898       -1.23765375723461
H            1.43874746244457       -1.16000833828432        0.75590785308910
C            0.61171879748483       -0.74626722692797        0.18010935060487
O           -1.56297901077846        0.07033635269721        0.80191152582808
C           -0.62651031678633       -0.71631969070525        1.11108856640176
H           -0.12493137305606        2.15611929785106       -1.30242955114923
O           -0.63343348674042       -1.47292946221533        2.09658929452435
H           -1.00911201043772        0.82364804677111       -0.75810815195504
H            0.38250432524235       -1.44237611808139       -0.62986742830527
O           -0.83316120537125        2.71405477726071       -4.81906425929686
H           -1.34926512515307        2.77591743570928       -5.62685911747853
H           -1.30077739254617        3.23701769852355       -4.14708049858511
O           -2.36149929247880        4.24379184722823       -2.94847887634326
H           -2.54681933547808        5.16353043635279       -3.16324557082554
H           -3.19062821196255        3.84044349337172       -2.67084042462711
O            0.30714865158103        0.39489717778623       -3.79302730836711
H            1.25045490308310        0.63099636428353       -3.68570964688972
H           -0.09242671962682        1.16009712769008       -4.24833761327123
O            2.79521460099544        1.37735056933239       -3.15397628518099
H            2.60179381701171        2.25449188499757       -2.76236989139545
H            3.48533642712842        1.52387967016460       -3.80509824296944
O           -0.36115073377195        3.83422527525904       -1.05515389714129
H           -0.82808119839504        3.68563472585844       -0.21483879433482
H           -1.04909102283937        4.03585370497366       -1.71503958130982
O            2.30186713585429        3.79759655909975       -1.93635885400395
H            2.85528818987367        4.09757291967427       -1.21084120406408
H            1.38064529989911        3.91373880596783       -1.64702673259923
O           -1.75132798446009        2.82020059692559        1.12728853491278
H           -1.77567703599212        1.84836635338576        1.06527322628233
H           -1.93515431546207        3.03655793244188        2.04397407867027
