37
 energy: -59.871505628451 gnorm: 0.000383564425 xtb: 6.7.1 (edcfbbe)
N            0.36772481426415       -0.07558910117693        1.68974030029500
C            0.64690840126818        1.23531725643717        1.06918684333524
C           -0.20921240785629        1.48227829888525       -0.17271854324957
C           -0.29099763019889        0.28662113736351       -1.13838345062602
C            1.05108471448423       -0.41799100074759       -1.35356516588141
O            1.74909595870218       -0.10612086148004       -2.35176171894038
O            1.38218447329661       -1.28733425085432       -0.51632381544554
H            0.95320983176520       -0.20501450199300        2.54891365016433
H           -0.62031587651737       -0.17253664229378        1.92730428946908
H            0.46050014571635        2.02874510639569        1.79195370552622
H            1.70294572695266        1.26829184706329        0.79394748947549
H            0.21998766053764        2.33306027278398       -0.70196628646684
H           -1.22824217981880        1.74714909735385        0.11301601827706
H           -0.98775140897246       -0.46507081070619       -0.76228679216565
H           -0.65294746389770        0.63376938141616       -2.10677829229421
H            0.64604410538378       -0.80640629475846        0.99650059604374
O            4.46116299721720        0.00161775438943       -1.75345609187179
H            3.52566738221231       -0.07213114761574       -2.03072138876525
H            4.97603589409791        0.05391269616781       -2.56427267744286
O            1.76044950976087       -4.67390322716951       -4.64871743146233
H            2.16160712620677       -3.85118824016370       -4.31044331608148
H            2.41717544970367       -5.36155128936230       -4.50042713631726
O            3.78597277719038       -2.60580074242475       -0.89062947577651
H            4.33667647484964       -1.80800252588835       -0.95272761476076
H            2.90064782607188       -2.26461757367851       -0.64649651709254
O            1.97716176721117        2.65496868953791       -2.45366494123416
H            1.86540766955825        1.69046111938750       -2.54848491457730
H            2.18194778691618        2.99396620669052       -3.32983527538296
O            2.98926404929496       -2.43679801249067       -3.51465155519662
H            2.46746673046270       -1.64129734535233       -3.32682062042153
H            3.36057005017286       -2.69344273534941       -2.64205272241290
O            2.03051921384728       -0.45173761481787        3.83831797728606
H            2.76946621081964        0.16130626638042        3.89532764856921
H            2.38724599013420       -1.34197040312957        3.91383884566523
O            3.56145525498965        2.15299969926214       -0.12697251203533
H            4.07493398283340        1.44024425907188       -0.53963317466125
H            3.06161899139242        2.55309523288178       -0.85617393348633
