37
 energy: -59.871122743982 gnorm: 0.000166237852 xtb: 6.7.1 (edcfbbe)
N            0.42142684055987       -0.84381489090146        2.58285708121585
C           -0.25587564725396       -0.47196130792986        1.32897651435787
C            0.28794075785091        0.84944166789607        0.79949542649933
C           -0.40257941668336        1.26343498297072       -0.49526760257154
C           -0.05249601339299        0.40419455190599       -1.74033784557502
O            0.65919757765113       -0.61058806933385       -1.59691179442572
O           -0.52838875664768        0.80949846496269       -2.82795497166654
H            1.44753358053301       -0.91099962479285        2.42806695637417
H            0.27238109296129       -0.10966537998705        3.30612470889179
H           -1.32935516154900       -0.38841007375885        1.50607349846684
H           -0.08381002903456       -1.23299792088167        0.56721910935967
H            1.35615346022507        0.74316027902145        0.60069657917543
H            0.13602577102286        1.63474072467630        1.54143248468188
H           -1.48948524415178        1.21749141868352       -0.39192814623683
H           -0.14402114185933        2.28944703491494       -0.76825755511786
H            0.06023289548204       -1.74967017708722        2.94794650649448
O            1.30574584252098       -4.11165771185179        5.52998116759264
H            1.62537734413797       -3.47616903139804        6.17853933056611
H            2.06600022058348       -4.61692496903422        5.22676607025630
O            3.18447779474781       -0.68749748530747        2.51553350615634
H            3.87446485149799       -1.35213331670294        2.56806162968617
H            3.22026413657056       -0.16619157907886        3.34708244570728
O           -0.53159993532182       -3.22754873912166        3.62646126972050
H           -0.70068475924934       -3.97512368076817        3.04828068530597
H            0.04503185649898       -3.55105050812999        4.34213855610018
O           -3.63062335810265       -0.57971131273808        1.87946086892825
H           -4.08289380708722       -0.64095469299665        2.72792076806513
H           -4.05577886180166       -1.20771814735558        1.29009484599494
O            2.95396434748938        0.87135568975133        4.74570720980210
H            3.29796885806084        1.76015843290262        4.62476986879972
H            1.98163542750998        0.95549249948484        4.76913900512305
O            0.17176273346807        1.10400571019867        4.56486673159584
H           -0.12902805457536        1.91979516929754        4.13004044753627
H           -0.47470115711013        0.89579293898891        5.24619804180543
O           -0.72954320636064        3.40862131752401        3.29332070261890
H           -0.24897382256174        4.23052428032571        3.16194129005175
H           -1.65617801657919        3.58375245559554        3.10589260854612
