37
 energy: -59.878143166829 gnorm: 0.011029325869 xtb: 6.7.1 (edcfbbe)
N            0.95506996688400       -1.26383112978811        0.95195080088040
C           -0.13543941128309       -1.05476548643536       -0.00953073578428
C            0.08313410303554        0.20634324982186       -0.83860116824219
C           -1.11303078822757        0.48846851656718       -1.75331034243694
C           -1.25767589890435       -0.61543530469406       -2.81439684009141
O           -1.85479929284104       -1.66567684424923       -2.47585685367916
O           -0.75857146050022       -0.41310052370017       -3.94098084975559
H            1.86586608216752       -1.37825463690050        0.45550400994956
H            1.00934303627596       -0.49100493093263        1.62782093528067
H           -1.08127119367592       -0.97189938974083        0.52250832303814
H           -0.19346267504329       -1.90882134243201       -0.68019236536968
H            0.97188786479512        0.09511211132675       -1.46083859657282
H            0.22320302733754        1.06324242547429       -0.17794710949893
H           -2.03557422012082        0.52577276185418       -1.17123830576322
H           -0.97288278788127        1.43463590538606       -2.27739012653099
H            0.78543640750753       -2.12032341909670        1.51987501536850
O           -0.54110554812475       -4.07636449158325       -5.59979657346710
H           -0.65505961073422       -4.19470809649382       -4.63490896271392
H           -1.38112582955271       -3.73804477133377       -5.92627549531359
O            3.18825692824519       -1.94233788814424       -0.47685686676646
H            3.93680847109149       -1.49279747139148       -0.87237922657668
H            2.74327245792981       -2.43216710906415       -1.19377324744398
O            1.75837027762728       -3.11728094447745       -2.51190703889995
H            1.74594377592152       -2.68824548653409       -3.38978782400962
H            0.93960182399202       -3.63441161183566       -2.49050524092488
O            0.51613339486301       -3.33919328315510        2.76634558603395
H           -0.19524910325428       -3.95124394366738        2.56779032638414
H            1.32719131795672       -3.85730817160868        2.85846759048233
O            0.53177664979853       -0.21579733708154        3.49859165967873
H            0.48325569679739       -1.14682696138991        3.72620049418587
H            0.01295785839623        0.25078204550600        4.15106127060968
O           -0.90408442934284       -4.12006699133466       -2.85785325344143
H           -1.28569684900775       -3.21372749849275       -2.77402684677915
H           -1.52797328922780       -4.70873475044529       -2.42055242858463
O            1.23664295223108       -2.01783939745883       -4.96827837122562
H            0.74277215593007       -2.76213081487892       -5.36418057360332
H            0.54800013892836       -1.38201098763423       -4.69388776845967
