166
 energy: -278.891361139936 gnorm: 0.000233838177 xtb: 6.7.1 (edcfbbe)
N           -0.17803569611756       -0.30800369925532       -0.01096596355813
C            0.54927322999708        0.75830429640731       -0.70933500683514
C            0.08202449261455        0.92223910388410       -2.14934485864100
C            0.74400889637533       -0.02680191203809       -3.15258708187264
C            0.16202205099545       -1.42504269873233       -3.27324286204575
O            0.18576073556944       -1.96737530090927       -4.41768839377440
O           -0.28318969241711       -2.00118984771815       -2.25595907490450
H            0.26798468390369       -0.49014032148799        0.90418305999944
H           -1.15519599885754        0.00210584071224        0.17530838831625
H            0.37586686633047        1.68726374971116       -0.17182189796353
H            1.61205320735427        0.52799922985691       -0.71168305379190
H            0.33090407453179        1.92692443169147       -2.48236018006787
H           -0.99718856501161        0.80560247021705       -2.21419941555740
H            1.79623831972635       -0.16730566403093       -2.89509955663711
H            0.71307755649206        0.41018545018684       -4.15172653977694
H           -0.19768027591893       -1.15296049017573       -0.59904121711022
O            2.98544554853351       -3.00166570008336        3.38385905933077
H            3.91527655644872       -2.85616743398959        3.62796144636210
H            2.87425594993269       -2.58253085777378        2.50338345221962
O           -1.89320518695074        2.31348336868148        5.13342977225793
H           -2.84566242679097        2.09874112855570        4.99655508779028
H           -1.70241269990402        2.13723695126264        6.05560942967828
O            2.35871654722682        3.21328633942640       -0.21664860994152
H            2.99092385506413        3.86482279751696        0.14162917351364
H            1.74937944609026        3.71034284523885       -0.79857211917557
O            2.07543404616239        5.01019646851024       -3.91720286838744
H            1.53499767756646        4.83467785096663       -3.12072648087420
H            1.46956669150505        4.87390568971646       -4.66615362378448
O           -0.99444092314449       -1.72376303622450        4.98536543367246
H           -1.07501470698839       -2.61490285492955        4.59572554856973
H           -1.17727527629211       -1.07632169462545        4.25932976356845
O           -4.19030178200147        4.11949160097894       -3.27881904350181
H           -5.12731946297735        4.31927544056081       -3.22460146820175
H           -4.10945173782719        3.31747245088761       -3.81375009334509
O           -0.02927092885062       -2.89106465740024        1.25967298528233
H            0.83992585320271       -2.53281543537422        0.99665209703015
H            0.19116818924016       -3.64476461575415        1.82807099553803
O            4.03891202833416        4.92129927909770        1.12338931163266
H            3.73822448122219        5.75530303375861        1.49038945004313
H            4.17415728186261        4.32078241873281        1.88172874698754
O            1.17668672566027        0.06162958409779        2.37742718347880
H            1.38569711453563       -0.47068076589636        3.17259872597479
H            2.01247416021193        0.23507439626071        1.90596785021342
O           -1.82441479889274       -4.25827046970067       -0.31659451732334
H           -1.19641722413624       -3.66862845670936        0.16138336211272
H           -2.43884504395183       -4.55498476745774        0.36704258002055
O           -1.35907847393514        0.34607877844758        3.30231163121023
H           -0.45348552537223        0.37890628696284        2.94686349174953
H           -1.43847762142301        1.09304520079637        3.91984256973355
O            3.13570309622563        1.14898180145058       -4.87316550527967
H            3.69471296090137        1.78101294383734       -5.33172745856034
H            3.20923162897808        1.37747576545337       -3.92410972051936
O           -3.72214587802973        1.39707309860846       -4.36414837683276
H           -3.57110697047023        0.49583271238599       -4.67424599872731
H           -3.67671484515892        1.29498571099472       -3.37681914666765
O           -2.46487831888428       -1.83348996598196        1.72746567689910
H           -1.51772543606120       -2.07572070308363        1.72612275091666
H           -2.68055111441086       -1.64627397583400        0.79402088495654
O            0.03990015113221        4.63562546553025       -5.77108972059449
H           -0.62379725797457        5.31528998973542       -5.91880101922497
H           -0.43488989422775        3.88711960245509       -5.35050209974717
O            2.82797128226764       -1.57293471435163       -5.18543626869703
H            1.86981389219310       -1.72065566519465       -5.08286156420296
H            2.94684280563003       -0.60034261001667       -5.17611410278040
O           -2.22684051958769        3.48282860072594        0.94985601679676
H           -1.34216548988515        3.70165661556393        1.30977770003168
H           -2.24229796704483        2.47837211136222        0.92784137009974
O            1.40456710570943        2.47082284967701        3.69860026161919
H            2.34160055398473        2.70826488591386        3.61008058298687
H            1.31314534323978        1.60291495867660        3.24329854244793
O            3.92656217747545       -0.58688205269075       -1.05068036180922
H            4.03478366945549       -1.28259218245488       -1.71830765400213
H            3.89849760416431        0.25424870823456       -1.54858871973022
O            3.43429071421107        1.02042998627393        1.22452312219688
H            2.98315888352131        1.71970414072008        0.71783151395029
H            3.88366726720915        0.47204704605084        0.56928370906643
O            2.90829381433073       -4.91652189587679       -2.07301015534586
H            3.24012845287722       -4.07553102539805       -2.44040538823673
H            1.93361983873651       -4.87944091917673       -2.15315272311847
O           -1.19936640031145       -4.27393568183273        3.96798770021028
H           -1.93643079888074       -4.39821431884175        3.33102300453263
H           -0.43127666457039       -4.71815918764587        3.58568686628722
O            1.64359688044927       -1.12603596521132        4.73499729191544
H            2.04725317526787       -1.95447867925026        4.39974641678470
H            0.73066893045267       -1.35485675199147        5.00900846617471
O           -1.96267080715982        3.60463827501688       -1.66142366315641
H           -2.10023721272020        3.66030312832245       -0.67460748308456
H           -2.71872879173192        4.04018782873825       -2.08068359699376
O           -1.01752092952601       -4.43164868542219       -4.52571303952441
H           -0.53737011359921       -4.83643063813624       -3.77579314523085
H           -0.58780301552966       -3.55203065059944       -4.61395607611438
O            5.45617835386328       -2.06575305691216        4.16445198365011
H            5.79472732929968       -2.17027496198138        5.05542760131862
H            5.04137895391109       -1.16792928854254        4.13084190427425
O            3.22183702730804       -4.83790081200448        0.56612298334151
H            4.10615576868894       -5.15444760889672        0.75968667574806
H            3.09462668129913       -4.95885409196980       -0.40313642478776
O           -3.24903302697862       -4.31237751490907        2.16971320014308
H           -3.01717173533153       -3.35538414537180        1.98688326150760
H           -4.07964987016568       -4.25430459266690        2.66406940625657
O            0.33698753337596        3.87167767599349        1.67995053939939
H            0.99468528479659        3.54818539384558        1.03847937539254
H            0.59812716191069        3.44929207709887        2.52669890308502
O            0.20144063480007       -4.64224569894858       -2.09563389223693
H           -0.43986897820001       -4.89850047013474       -1.41046964898637
H            0.05511030475120       -3.66816374322995       -2.16574172321268
O           -2.41995987054613        0.89602636318124        0.95432118440874
H           -2.16560452795662        0.64145401687751        1.87358048390914
H           -3.35649373901563        0.69762209765195        0.84642799549256
O            4.01275462076429        0.20038907666166        4.02923393180934
H            3.19428932789589       -0.09173802319051        4.46462450699527
H            3.78790126983950        0.28585102905629        3.08925590073482
O            4.55021317845439        3.92073639922609       -3.75680979675673
H            3.65284500043391        4.30655544169904       -3.87147454585617
H            5.13354006312252        4.66248330322338       -3.58078113769771
O            1.24068408978912       -4.95799982777327        2.61999129039833
H            1.86098508269246       -4.36526091113532        3.08811428233214
H            1.73716952697158       -5.22918300495007        1.83389513125314
O           -4.36807424045921        1.50436528589460        4.46663162884566
H           -4.22340757749538        0.56227534387133        4.23843476017162
H           -4.47781224185865        1.97836415770219        3.62184925416091
O            4.12301903489746        2.95536375226492        3.05217611685142
H            4.69798302532912        2.58922205718652        3.72876146474920
H            4.01633024304641        2.24357178477099        2.38504912801421
O            0.53970573683434        4.64137150921607       -1.64271367747885
H           -0.34183444293468        4.20953992899201       -1.70662679159792
H            0.38188915854513        5.49240547580421       -1.22655204077443
O           -2.80395726778434       -1.31698480657527       -0.92527457746711
H           -2.96389152503853       -0.42365127654960       -1.28789232169799
H           -2.15565399748884       -1.73971952574111       -1.50255385225732
O           -5.25646879894031       -2.46379456463158       -1.33663818325174
H           -5.01350766774168       -3.12794266764944       -1.98843678289683
H           -4.39749869816845       -2.03286288560390       -1.12333815939230
O            2.54937221287252       -2.15970312679930        0.79975124867632
H            2.80984607923138       -3.07451449893135        0.59913241823251
H            3.00256182325889       -1.59725686556355        0.15196957632142
O            3.62825420852772        1.85145198906264       -2.22278502367982
H            4.15717388440510        2.54558142732465       -2.64968221620477
H            3.09228581836534        2.32402236554090       -1.54619538686821
O           -3.36463591793642        1.22609264947901       -1.74367800183851
H           -2.78564206242177        2.00742355345442       -1.61678658403986
H           -4.09122715882001        1.31971350988576       -1.10571967681799
O            4.06984246753905       -2.55212880814416       -3.02701516257391
H            3.59151985792641       -2.22164049585209       -3.82432785056326
H            4.94803628404831       -2.79104725543968       -3.33643456902696
O           -2.78307856081100       -1.29536993975403       -4.28855624382766
H           -1.91874530094889       -1.53029509609126       -4.64082511489064
H           -3.05075219257247       -2.05828067572061       -3.73917281316117
O           -3.05175606882884       -3.66278498672860       -2.81435971119674
H           -2.64525899457573       -3.84199713969025       -1.94208211196773
H           -2.44410065534641       -4.05573706861911       -3.46757459780500
O           -1.32502741026973        2.75335265465186       -4.36799382544735
H           -1.42801658634120        3.04049369298751       -3.44667505247808
H           -2.14066239541786        2.25314919939430       -4.55612329917186
O           -5.16526684645677        1.22743221033399        0.36265384164815
H           -6.01777128588867        0.80492849074375        0.46535140379505
H           -5.10237038478829        1.94923382923405        1.01946944539099
O           -5.42714935359700       -3.32735765562459        3.63512909207191
H           -6.19581101239744       -3.00563429361134        3.15768333636376
H           -4.89009729539015       -2.52786840146173        3.84576911377914
O           -4.59258446331681        3.16565601564373        2.21392324259809
H           -3.70060247261192        3.37812461136555        1.84686773045252
H           -5.01400296987545        4.00472513462626        2.40453426555006
O           -3.78735538318301       -1.16908068803353        3.98181042207115
H           -3.30265876895064       -1.29250491368590        3.13132545378207
H           -3.12768730421469       -1.37748187385852        4.65625575429429
