34
 energy: -56.717803698254 gnorm: 0.000399783261 xtb: 6.7.1 (edcfbbe)
C           -0.46147298983527       -0.63634519318483        0.95357319701329
C           -0.46513529662696        0.05779108028406        2.32774560081704
O            0.00549963250536       -0.61486629936862        3.28476149700175
O           -0.91982192614452        1.20953224422427        2.42748713725753
C           -0.58318874394079        0.31518643651347       -0.22787483273420
N            0.67283433783526        1.05460980203538       -0.46381530202251
H            0.44073791681842       -1.24413449770158        0.88211506619770
H           -1.31378493174873       -1.31870759332742        0.96831591782386
H           -0.82540532767666       -0.26719744678233       -1.11656391396329
H           -1.39104289350791        1.02140425730456       -0.02542882607043
H            0.73037238605213        1.37244372771646       -1.43128653862197
H            1.53089800911729        0.45605685142910       -0.25872706652811
H            0.75377722752368        1.89791332028568        0.14165310617637
O            2.96470320998289        1.56250989744349        4.09504741384232
H            2.28678599012753        1.14860582750350        4.67491243545983
H            3.64909036361952        1.88991876802390        4.68660018324986
O            2.96593278999766       -0.18518062907339        0.17174927613411
H            3.42077389033649        0.65041944260976        0.41516056568299
H            2.90604759503484       -0.66954737198290        1.01825193086531
O            0.71917315501294        3.20329712936827        3.33455358363923
H            0.02309465030095        2.53097163143251        3.20427674235945
H            1.49658276346290        2.71756554107440        3.65948996838439
O            2.66990348207740       -1.01915781821037        2.76502105706859
H            1.71812382386634       -1.03574166363619        2.97870540049592
H            3.00231096902065       -0.21381907239953        3.19303716327449
O            1.01313253297861        0.39939767326955        5.54823018664166
H            1.12826875469850       -0.34282379804949        6.14890391278799
H            0.51289910165875        0.04822350007494        4.77510481786766
O            3.65792579437594        2.19865686145024        1.27445895044992
H            2.92541641690604        2.77592764902194        0.99051016750985
H            3.48221419340756        2.00935119367097        2.20597239546828
O            1.25022745047120        3.48732689756290        0.74222029052189
H            1.01777333984556        3.48320568977130        1.70072991300667
H            0.96998433243054        4.33772396165228        0.39511560295976
