37
 energy: -59.854104078410 gnorm: 0.001135918314 xtb: 6.7.1 (edcfbbe)
N           -0.83872440702528       -1.04547413247556        1.51703750126398
C           -0.84466417797816       -0.53695122671208        0.13206386074031
C            0.14609848186511        0.60926677775651       -0.03777382820735
C            0.19133386154563        1.08668000969249       -1.48537478904173
C            0.81475655993256        0.06122200995011       -2.46079477383789
O            1.33963412291688       -0.97012709299405       -2.00294038022553
O            0.74738358762777        0.35463792992744       -3.68291918342281
H            0.09338788019446       -1.39300506815633        1.74948274002945
H           -1.08931482310460       -0.29133173508957        2.19583934232693
H           -1.84825469471399       -0.19842084010730       -0.12284811601947
H           -0.55789398388142       -1.33372517823282       -0.55491015068749
H            1.14883789656688        0.26693719701959        0.22415206857702
H           -0.12806863195700        1.44770089088473        0.60259142782898
H           -0.80319139391164        1.32506128127183       -1.86727980423806
H            0.79934374472964        1.98988160602510       -1.57648642537187
H           -1.52581391432575       -1.82659986658482        1.62721856666196
O            0.37096164025758        5.37449984860428       -5.69882150713483
H            0.95650725164069        4.64645533236077       -5.46781279328517
H           -0.44340153762139        4.98181560695474       -6.02884349735842
O            0.42592278967302        2.18043703694635        4.98556089023089
H           -0.18165384687178        1.74555100400581        4.36232451937411
H            1.25148225649886        2.31233363253395        4.51160821925603
O           -1.57918250108841        0.76925799215138        3.48991675987340
H           -1.82091464808560        0.19273101325044        4.22406103453054
H           -2.33699443441342        1.33942877276980        3.32496447825446
O            0.87987062742777       -3.53751043290816        5.58920577506985
H            1.66264945540759       -4.08860233320906        5.49961052382469
H            1.06945086147826       -2.88052697707739        6.26701170800440
O            1.69903718282393       -1.83406419732208       -4.99905361828032
H            2.06387553910670       -2.29909573237509       -4.23763384080539
H            1.33999172883948       -0.99878894959830       -4.61935787910391
O           -2.64830016115593       -3.10256260398495        1.84091051075441
H           -3.14743679754268       -3.44916554025492        1.09665221502089
H           -2.39994415975174       -3.84826603996677        2.39561997223224
O           -2.98831258704998       -4.54617559941783       -3.42780870335661
H           -2.05419126430848       -4.38060398398765       -3.58785667065534
H           -3.46432850386882       -4.22637841172543       -4.20002315350995
