40
 energy: -64.976685773702 gnorm: 0.000252985971 xtb: 6.7.1 (edcfbbe)
N           -0.61387080884870        0.81876146825407       -0.35627440175661
C            0.19391739900974        1.98362839108155       -0.74667563065581
C           -0.00120992121761        2.31563670527231       -2.22453890466526
C            0.75926593076423        1.39196744946409       -3.18713337114162
C            0.07067933416350        0.07811741740076       -3.55957396596808
O            0.12201673693119       -0.28733992911264       -4.75785092919006
O           -0.49877731842714       -0.59757655620015       -2.66610573785380
H           -0.26946324732700        0.39795771498222        0.54273436969789
H           -1.61875537741661        1.07766219297576       -0.30112470844492
H           -0.10639487199603        2.83924488441237       -0.14196823874104
H            1.24494750285459        1.76833398939257       -0.54878248536365
H            0.35713994639800        3.33027103381642       -2.39811480232705
H           -1.06689212270190        2.29648646501485       -2.45885195519695
H            1.72604867506705        1.11611180383694       -2.75663455659428
H            0.95698019196457        1.90662406281269       -4.12938856680569
H           -0.53454814400091        0.10700148709630       -1.11293805823275
O            0.47727453252238       -0.37176111404713        1.80891697159798
H            0.88546666421670       -1.17244804925149        1.43350455867291
H           -0.15975021801648       -0.67512671148370        2.47798705624739
O           -3.26877343067896       -0.26657202664511       -2.83210895686713
H           -3.36342489475686       -0.15935958425512       -3.78849230629062
H           -2.35761640421616       -0.58476177656706       -2.71207798929170
O           -2.54232059399011       -0.08272241101296       -5.61298499557924
H           -2.58250243446736        0.44580854128955       -6.41604148252458
H           -1.59904122060573       -0.23479261308024       -5.43196695936496
O           -3.29505084426141        1.46115818313370       -0.67941384067942
H           -3.41045799260101        0.90870069562000       -1.47503909056464
H           -4.02632805682228        1.24682784826513       -0.09355162296257
H            0.10765446448345       -2.25441999468195       -2.25332546101786
H            1.13356273300346       -3.18839121479468       -2.90749474625160
O            0.66185482487354       -3.03529605956328       -2.07540325868372
H            1.22056821708410       -2.78648134859737       -0.36633311931309
H            1.33237213675407       -3.56453637470205        0.96290868713343
O            1.43417429919268       -2.68885142678428        0.57933597803616
O            1.37280413968234       -2.77926016841720       -4.84168040135598
H            0.93668215954105       -1.91040807060238       -4.90908361344360
H            1.04969267898756       -3.29598139505397       -5.58691026774101
O           -1.61564069291992       -1.03099836940084        3.57610290039808
H           -1.96990294801414       -0.29709092877366        4.08742186283318
H           -2.36264847922349       -1.54817651281478        3.25874512360369
