34
 energy: -56.711401896987 gnorm: 0.005891685014 xtb: 6.7.1 (edcfbbe)
C            0.80750139413732       -0.09588978489014        0.57662953440479
C            0.93599680129837        0.67414213558596        1.89924092327567
O            1.49452984049914        0.08545053342390        2.85213586060982
O            0.48971378154148        1.84516016861290        1.96869766406648
C            0.13687198414727        0.70196629356468       -0.52972245949376
N            0.13695125436698       -0.05334986378994       -1.79440209443969
H            1.82234961338556       -0.38067392229062        0.28968645102840
H            0.25907767198584       -1.01156410963296        0.80191705141230
H           -0.88590135166683        0.94506199404638       -0.24362653309425
H            0.67639930215273        1.64008914845362       -0.66529651714728
H           -0.42335076893887       -0.92487386416962       -1.71473531082602
H            1.10888432468396       -0.30524425158454       -2.04892001741629
H           -0.27583907808305        0.52699439708610       -2.55177249507640
O            1.87277743475526       -2.62009262547060        2.65489877338927
H            1.86869612720899       -2.94586197045806        3.56093181056235
H            1.78185544335519       -1.64456563902790        2.72987149113465
O           -2.01092775606888        2.65689212260976        1.04256573014469
H           -1.15072989874131        2.41083245358433        1.42764119897462
H           -2.12889784755822        3.59051324870814        1.24442169402545
O            1.38798393958274        2.93684312973747        4.33938174745953
H            1.79057250831946        2.15959280368025        4.74053294164300
H            1.03346901229852        2.61481583723919        3.48259130080195
O           -1.00559873417267        1.54387808963647       -3.76246100219474
H           -0.94556647029954        1.34154337642576       -4.70450799474054
H           -1.87952777270594        1.90844287870509       -3.59801032081519
O           -1.42558310349331       -2.35190756807571       -1.80217460934612
H           -2.28595809193833       -2.45736896076589       -1.38768128869079
H           -1.00883895012551       -3.23150616113069       -1.81209408626069
O           -0.22680832416811       -4.86661682639204       -1.70989904902533
H            0.22394679657995       -5.25844963256849       -2.46428961001318
H            0.29525043825044       -5.06230952925614       -0.92624956089143
O            2.82601395354163       -0.64400282275294       -2.38976054828667
H            3.15913903513154       -1.52167967535806       -2.59766104006166
H            3.37665249084273       -0.00657440350196       -2.85217163516845
