16
Coordinates from ORCA-job 04_Aminobutyric-acid_zwitterion E -363.024404756749
  N       0.598300      0.701200      0.633100
  C       0.842400      1.927400     -0.128300
  C       0.566100      1.748500     -1.634200
  C       1.416900      0.682500     -2.350200
  C       2.890800      0.986800     -2.348700
  O       3.532500      1.196900     -3.514000
  O       3.521900      1.011200     -1.304600
  H       0.728800      0.902700      1.650800
  H      -0.381000      0.368500      0.478400
  H       0.164300      2.724500      0.249700
  H       1.881400      2.277700      0.044400
  H       0.723400      2.726500     -2.139400
  H      -0.504100      1.473800     -1.759000
  H       1.243800     -0.320900     -1.908800
  H       1.072500      0.640900     -3.406500
  H       1.277300     -0.043900      0.359300
16
Coordinates from ORCA-job 04_Aminobutyric-acid_zwitterion E -363.036483426043
  N       0.636367      0.702510      0.617619
  C       0.840842      1.949729     -0.157682
  C       0.558983      1.755906     -1.646909
  C       1.399549      0.681479     -2.360367
  C       2.889369      0.949295     -2.314105
  O       3.489342      1.201441     -3.439866
  O       3.465887      0.989225     -1.216146
  H       0.766873      0.881849      1.614328
  H      -0.307926      0.337585      0.483551
  H       0.164586      2.711278      0.234728
  H       1.860385      2.291413      0.005480
  H       0.720328      2.719122     -2.137293
  H      -0.500691      1.506404     -1.770723
  H       1.204514     -0.307402     -1.931155
  H       1.076174      0.648722     -3.402922
  H       1.310718     -0.014255      0.343462
16
Coordinates from ORCA-job 04_Aminobutyric-acid_zwitterion E -363.039012718864
  N       0.686320      0.712006      0.600893
  C       0.814206      1.985571     -0.179765
  C       0.533637      1.772536     -1.655937
  C       1.387420      0.709537     -2.370416
  C       2.892736      0.966122     -2.280923
  O       3.484376      1.146505     -3.364741
  O       3.434581      0.820075     -1.151449
  H       0.815218      0.873265      1.592786
  H      -0.224866      0.284824      0.479421
  H       0.112586      2.695589      0.236610
  H       1.817190      2.344149     -0.019055
  H       0.678465      2.737224     -2.132511
  H      -0.517795      1.522466     -1.784618
  H       1.186550     -0.277937     -1.953510
  H       1.084513      0.672763     -3.408890
  H       1.390161      0.039604      0.314106
16
Coordinates from ORCA-job 04_Aminobutyric-acid_zwitterion E -363.041474849073
  N       0.755859      0.715392      0.569661
  C       0.813162      2.003162     -0.205674
  C       0.512334      1.779915     -1.674309
  C       1.347622      0.699068     -2.381359
  C       2.868165      0.886852     -2.218069
  O       3.509976      1.161971     -3.233957
  O       3.307137      0.801885     -1.029182
  H       0.899340      0.868241      1.568027
  H      -0.141047      0.239515      0.461375
  H       0.095502      2.682218      0.243134
  H       1.817628      2.378224     -0.058804
  H       0.669899      2.747358     -2.153207
  H      -0.548059      1.552708     -1.800641
  H       1.092874     -0.287372     -1.983937
  H       1.083622      0.696405     -3.434743
  H       1.491287      0.078757      0.253684
16
Coordinates from ORCA-job 04_Aminobutyric-acid_zwitterion E -363.044281668222
  N       0.814279      0.725672      0.549887
  C       0.794157      2.016208     -0.211048
  C       0.488013      1.788915     -1.682722
  C       1.320935      0.704587     -2.385945
  C       2.839083      0.844306     -2.164385
  O       3.563208      1.147909     -3.149915
  O       3.230581      0.675484     -0.971808
  H       0.958854      0.881767      1.550681
  H      -0.057189      0.198791      0.441847
  H       0.048632      2.662679      0.252295
  H       1.787451      2.437369     -0.072940
  H       0.645531      2.759427     -2.166029
  H      -0.576411      1.562876     -1.810096
  H       1.029736     -0.285486     -2.017238
  H       1.095085      0.738650     -3.453486
  H       1.593357      0.145147      0.212901
16
Coordinates from ORCA-job 04_Aminobutyric-acid_zwitterion E -363.046645996064
  N       0.874888      0.740592      0.531861
  C       0.767913      2.031703     -0.215276
  C       0.466041      1.799300     -1.689466
  C       1.299484      0.715506     -2.394242
  C       2.812160      0.797421     -2.115039
  O       3.594304      1.116324     -3.050783
  O       3.150459      0.524855     -0.924687
  H       1.016670      0.895046      1.531767
  H       0.045166      0.153700      0.422483
  H      -0.005393      2.635813      0.258912
  H       1.740663      2.499953     -0.080575
  H       0.619498      2.773295     -2.167746
  H      -0.597288      1.574226     -1.824313
  H       0.975269     -0.276233     -2.061057
  H       1.112326      0.783355     -3.468104
  H       1.703140      0.239445      0.168267
16
Coordinates from ORCA-job 04_Aminobutyric-acid_zwitterion E -363.047095105954
  N       0.930098      0.768685      0.531432
  C       0.714804      2.048954     -0.200841
  C       0.448532      1.812813     -1.687254
  C       1.290311      0.735752     -2.401893
  C       2.795911      0.723539     -2.084106
  O       3.623265      1.058134     -2.958216
  O       3.102973      0.265696     -0.939816
  H       1.052957      0.921207      1.528681
  H       0.176631      0.099481      0.406667
  H      -0.100619      2.595283      0.264540
  H       1.645849      2.590890     -0.053377
  H       0.592334      2.791081     -2.154017
  H      -0.606280      1.577976     -1.844024
  H       0.927739     -0.256908     -2.124291
  H       1.140459      0.848881     -3.475253
  H       1.840336      0.422835      0.113769
16
Coordinates from ORCA-job 04_Aminobutyric-acid_zwitterion E -363.045907137222
  N       0.982993      0.756315      0.484400
  C       0.734550      2.051290     -0.227475
  C       0.431802      1.821876     -1.702887
  C       1.264494      0.730871     -2.395679
  C       2.757637      0.714910     -2.011358
  O       3.613710      1.070295     -2.852212
  O       3.009424      0.332674     -0.822918
  H       1.142477      0.897313      1.482575
  H       0.213490      0.093686      0.381975
  H      -0.078827      2.575256      0.271604
  H       1.658670      2.613929     -0.099653
  H       0.585597      2.790435     -2.189715
  H      -0.628754      1.587861     -1.834946
  H       0.866920     -0.253541     -2.128966
  H       1.157450      0.852321     -3.474525
  H       1.863665      0.368808      0.041780
16
Coordinates from ORCA-job 04_Aminobutyric-acid_zwitterion E -363.046067823263
  N       0.877680      0.732804      0.531133
  C       0.777883      2.033124     -0.222249
  C       0.470899      1.807562     -1.694717
  C       1.301714      0.714396     -2.385470
  C       2.815439      0.791534     -2.102187
  O       3.562372      1.175150     -3.028242
  O       3.191572      0.512020     -0.919066
  H       1.034434      0.889168      1.528919
  H       0.024567      0.175478      0.438217
  H      -0.003668      2.623240      0.255274
  H       1.729526      2.543069     -0.086710
  H       0.629764      2.759933     -2.208178
  H      -0.589403      1.558049     -1.801166
  H       0.941008     -0.269965     -2.068874
  H       1.129620      0.790025     -3.459042
  H       1.681894      0.168712      0.144359
16
Coordinates from ORCA-job 04_Aminobutyric-acid_zwitterion E -363.048496625245
  N       0.911504      0.757451      0.534704
  C       0.733945      2.045177     -0.204994
  C       0.459150      1.813013     -1.688521
  C       1.297444      0.727266     -2.395846
  C       2.806630      0.741218     -2.094296
  O       3.596306      1.118244     -2.983012
  O       3.153807      0.328818     -0.941245
  H       1.047083      0.913563      1.531442
  H       0.117205      0.129975      0.422816
  H      -0.078100      2.597877      0.262161
  H       1.661890      2.592786     -0.055562
  H       0.611267      2.776433     -2.180146
  H      -0.596397      1.565287     -1.822917
  H       0.922130     -0.260504     -2.114055
  H       1.144504      0.832546     -3.469247
  H       1.786933      0.325149      0.120719
16
Coordinates from ORCA-job 04_Aminobutyric-acid_zwitterion E -363.048983072126
  N       0.929673      0.755830      0.517017
  C       0.735144      2.047570     -0.211312
  C       0.452807      1.817358     -1.692506
  C       1.288409      0.725289     -2.390341
  C       2.792893      0.736309     -2.070154
  O       3.594388      1.126713     -2.942128
  O       3.120646      0.318178     -0.911840
  H       1.073146      0.905583      1.514228
  H       0.138880      0.122822      0.406968
  H      -0.077337      2.593546      0.263405
  H       1.661493      2.600155     -0.066281
  H       0.608806      2.778951     -2.186911
  H      -0.603675      1.571696     -1.824919
  H       0.904707     -0.258803     -2.106011
  H       1.147256      0.828194     -3.465814
  H       1.808064      0.334911      0.088598
16
Coordinates from ORCA-job 04_Aminobutyric-acid_zwitterion E -363.049096611798
  N       0.943615      0.753497      0.507244
  C       0.737279      2.047887     -0.215461
  C       0.449391      1.821584     -1.697083
  C       1.280713      0.722731     -2.389224
  C       2.781075      0.734127     -2.053994
  O       3.590516      1.134013     -2.912278
  O       3.096160      0.315281     -0.890275
  H       1.088288      0.901024      1.504500
  H       0.154917      0.117854      0.397652
  H      -0.076186      2.588385      0.264060
  H       1.659850      2.607705     -0.072997
  H       0.610932      2.780167     -2.195113
  H      -0.607871      1.578178     -1.826969
  H       0.888007     -0.257235     -2.103556
  H       1.149474      0.823603     -3.466010
  H       1.829140      0.335497      0.071502
16
Coordinates from ORCA-job 04_Aminobutyric-acid_zwitterion E -363.049121084748
  N       0.942041      0.753279      0.506902
  C       0.736480      2.048017     -0.214474
  C       0.450770      1.822512     -1.696662
  C       1.280974      0.720936     -2.387365
  C       2.782104      0.734581     -2.055676
  O       3.588364      1.137985     -2.914913
  O       3.102689      0.314616     -0.893190
  H       1.086856      0.900214      1.504342
  H       0.152084      0.119121      0.396902
  H      -0.077807      2.588001      0.264450
  H       1.658038      2.609167     -0.070579
  H       0.615672      2.779894     -2.195693
  H      -0.606744      1.580680     -1.827415
  H       0.887645     -0.257909     -2.098971
  H       1.148101      0.819069     -3.464198
  H       1.828034      0.334138      0.068542
16
Coordinates from ORCA-job 04_Aminobutyric-acid_zwitterion E -363.049129928088
  N       0.943454      0.753277      0.506470
  C       0.734863      2.047914     -0.213268
  C       0.452530      1.824315     -1.696973
  C       1.279646      0.718360     -2.386163
  C       2.780914      0.733088     -2.056982
  O       3.585259      1.142079     -2.914653
  O       3.104618      0.310201     -0.895218
  H       1.084306      0.899944      1.504538
  H       0.155382      0.117201      0.393400
  H      -0.082120      2.584924      0.264669
  H       1.653696      2.613201     -0.067067
  H       0.623589      2.780193     -2.196600
  H      -0.605552      1.586375     -1.830177
  H       0.883600     -0.258512     -2.095048
  H       1.146218      0.814123     -3.463131
  H       1.834897      0.337618      0.068201
16
Coordinates from ORCA-job 04_Aminobutyric-acid_zwitterion E -363.049131229033
  N       0.943325      0.752351      0.505200
  C       0.734872      2.047469     -0.213254
  C       0.452956      1.825018     -1.697343
  C       1.279296      0.717412     -2.384898
  C       2.780296      0.735209     -2.056186
  O       3.583664      1.143075     -2.914651
  O       3.105147      0.314124     -0.893700
  H       1.086294      0.898314      1.502913
  H       0.154051      0.117834      0.393541
  H      -0.081860      2.584428      0.264938
  H       1.653509      2.612824     -0.066635
  H       0.626604      2.780210     -2.197125
  H      -0.605193      1.588504     -1.831625
  H       0.883443     -0.258645     -2.091221
  H       1.145432      0.810735     -3.461944
  H       1.833463      0.335440      0.063989
16
Coordinates from ORCA-job 04_Aminobutyric-acid_zwitterion E -363.049132114997
  N       0.943591      0.752484      0.505581
  C       0.734679      2.047351     -0.213219
  C       0.453200      1.824949     -1.697449
  C       1.279143      0.717223     -2.385139
  C       2.780220      0.734669     -2.056699
  O       3.583668      1.143566     -2.914930
  O       3.104751      0.313534     -0.894215
  H       1.085967      0.898767      1.503418
  H       0.154790      0.117258      0.393727
  H      -0.082503      2.583919      0.264754
  H       1.653125      2.613026     -0.066400
  H       0.627510      2.780274     -2.196904
  H      -0.605084      1.589185     -1.832362
  H       0.883202     -0.258872     -2.091566
  H       1.145059      0.810931     -3.462185
  H       1.833982      0.336037      0.065589
16
Coordinates from ORCA-job 04_Aminobutyric-acid_zwitterion E -363.049132424848
  N       0.943874      0.752473      0.505627
  C       0.734253      2.047194     -0.213124
  C       0.453535      1.825114     -1.697624
  C       1.278922      0.716869     -2.384997
  C       2.780021      0.734558     -2.056931
  O       3.583327      1.144155     -2.915019
  O       3.104661      0.312939     -0.894659
  H       1.086351      0.898884      1.503433
  H       0.155439      0.116739      0.394048
  H      -0.083459      2.583165      0.264609
  H       1.652314      2.613400     -0.065922
  H       0.629192      2.780416     -2.196697
  H      -0.604851      1.590460     -1.833593
  H       0.882983     -0.259058     -2.090914
  H       1.144460      0.810351     -3.462035
  H       1.834280      0.336641      0.065797
16
Coordinates from ORCA-job 04_Aminobutyric-acid_zwitterion E -363.049132514133
  N       0.943921      0.752347      0.505633
  C       0.734104      2.047056     -0.213124
  C       0.453846      1.825270     -1.697809
  C       1.278775      0.716531     -2.384856
  C       2.779907      0.734757     -2.057104
  O       3.582881      1.144988     -2.915212
  O       3.104842      0.313122     -0.894934
  H       1.086638      0.898886      1.503405
  H       0.155441      0.116579      0.394424
  H      -0.083898      2.582683      0.264482
  H       1.651931      2.613548     -0.065643
  H       0.630580      2.780457     -2.196714
  H      -0.604626      1.591423     -1.834417
  H       0.882887     -0.259216     -2.090161
  H       1.143939      0.809600     -3.461889
  H       1.834132      0.336271      0.065918
16
Coordinates from ORCA-job 04_Aminobutyric-acid_zwitterion E -363.049132538283
  N       0.943960      0.752345      0.505558
  C       0.734008      2.047065     -0.213139
  C       0.453897      1.825340     -1.697870
  C       1.278741      0.716463     -2.384783
  C       2.779882      0.734782     -2.057020
  O       3.582790      1.145289     -2.915052
  O       3.104924      0.312799     -0.895046
  H       1.086968      0.898911      1.503272
  H       0.155459      0.116586      0.394606
  H      -0.084100      2.582512      0.264462
  H       1.651740      2.613668     -0.065565
  H       0.630891      2.780496     -2.196728
  H      -0.604582      1.591661     -1.834632
  H       0.882880     -0.259230     -2.089907
  H       1.143816      0.809383     -3.461812
  H       1.834025      0.336233      0.065656
