! Opt B3LYP D4 def2-TZVP TightSCF TightOpt CPCM(water)

%maxcore 5000

%pal
nprocs 6
end

* xyz 0 1
N          0.59830        0.70120        0.63310
C          0.84240        1.92740       -0.12830
C          0.56610        1.74850       -1.63420
C          1.41690        0.68250       -2.35020
C          2.89080        0.98680       -2.34870
O          3.53250        1.19690       -3.51400
O          3.52190        1.01120       -1.30460
H          0.72880        0.90270        1.65080
H         -0.38100        0.36850        0.47840
H          0.16430        2.72450        0.24970
H          1.88140        2.27770        0.04440
H          0.72340        2.72650       -2.13940
H         -0.50410        1.47380       -1.75900
H          1.24380       -0.32090       -1.90880
H          1.07250        0.64090       -3.40650
H          1.27730       -0.04390        0.35930
*
