37
 energy: -59.870259489322 gnorm: 0.000312785100 xtb: 6.7.1 (edcfbbe)
N           -0.47605865678578       -0.19953482699868        1.35357518714594
C            0.46533588259936        0.75984561651647        0.74283383396587
C            0.10952134890784        0.98809991541256       -0.72202550473127
C            0.55869628599847       -0.13625782043074       -1.66241758012393
C           -0.34152293978313       -1.39091655408448       -1.74953406264832
O           -0.45378589927034       -1.92790945023259       -2.86681883803825
O           -0.88416509940505       -1.82126216236663       -0.69803827812291
H           -0.09612923635277       -0.62546759760167        2.19656982198425
H           -1.37887885343635        0.27370031997313        1.57693680409033
H            0.41418344868106        1.70549845860723        1.28323535015740
H            1.48018619470831        0.36637698098963        0.81009790540689
H            0.59232657369629        1.90783960511375       -1.05156008039489
H           -0.96690592658625        1.13162250189196       -0.81714801467214
H            1.55058474954223       -0.49904057455977       -1.37612440534161
H            0.63858911638299        0.23666056232785       -2.68541307093996
H           -0.67677924520849       -0.94887981438460        0.62399423203988
O            0.22183236526915        3.77420745325333        2.30051919044038
H            0.85867843802000        4.46463787374414        2.50129245709492
H           -0.12571225940680        3.97030588893112        1.40821937987229
O           -2.79804760005224        1.11876776695945        2.06933006048871
H           -3.52531926853460        0.61921793532589        2.45002607153335
H           -2.50015797234859        1.76383662720437        2.75280810746503
O           -3.28683072305088        2.19066369493181       -5.39998635318559
H           -3.83192851674724        2.84116168517076       -4.94509922774898
H           -3.24865376713362        1.41140031977090       -4.83611667676936
O           -3.00644474916294        2.57919351918878       -0.26067468414212
H           -3.87147062967481        2.99869392948570       -0.23905015760350
H           -2.94841245510606        2.03702650824264        0.55134195383319
O           -1.81202540375320        2.84920704455598        3.87112741527517
H           -1.09438280242140        3.24957419222039        3.33802048799212
H           -1.41295870483045        2.58151932692233        4.70374102298656
O           -0.88163597307835        2.96240907381259       -6.75056395466689
H           -1.73621318975659        2.74384108721608       -6.34323505318030
H           -0.42264480237614        2.12529025820676       -6.86856866430757
O           -0.76916005810033        4.18394992779140       -0.21386779165882
H           -1.54813565204311        3.59711017761869       -0.29134434196765
H           -0.94738501945908        4.95271254936794       -0.76113254172929
