! Opt B3LYP D4 def2-TZVP TightSCF TightOpt CPCM(water)

%maxcore 5000

%pal
nprocs 30
end

%geom
    MaxIter 500
end

* xyz 0 1
N           -0.16992404656221       -0.99600433444661        1.63782110123479
C           -1.12252441105670       -0.58299190507280        0.59428748972476
C           -0.41554861413966        0.25257135265391       -0.46809758343234
C           -1.40801204117423        0.93714123224342       -1.41537224460196
C           -2.22432525706542       -0.07449397150148       -2.21660484400682
O           -3.34283870952264       -0.43158355018537       -1.77095255374639
O           -1.74464266606832       -0.51327082806357       -3.29126922909914
H            0.58910470850969       -1.56177237959016        1.22383987964770
H            0.25382253410489       -0.15704159615776        2.07632787160387
H           -1.92241558208421        0.00763919814019        1.04302817884432
H           -1.56987796197279       -1.46830931076746        0.14238034694776
H            0.26721880749397       -0.37006050981010       -1.04826390743720
H            0.16465398146209        1.03501755762920        0.02351786856124
H           -2.09915521875545        1.55543806186628       -0.84132002937128
H           -0.86591953264436        1.56374620041994       -2.12592551901602
H           -0.65386394065956       -1.56347646233265        2.37546557240546
O           -4.05417756919502       -2.76569685608378       -0.37420652574877
H           -3.72923940571299       -1.96025561717852       -0.80538533282354
H           -4.85788753546678       -2.99019823368998       -0.85623449792920
O           -2.79641235534762       -4.15595694819038        1.68638070474357
H           -3.29992452154508       -3.64705032236502        1.02885452307144
H           -2.40301279056795       -4.89281205501175        1.21069913144083
O           -0.62752505430227        1.35908356871113       -5.03605172022035
H           -0.93216865354836        1.21883587245013       -5.93773016631719
H           -1.10083826703851        0.70841130530618       -4.48845295246450
O            1.06087374910889       -0.77469634683112       -3.48152510144078
H            1.34137498937543       -0.06216952552553       -4.06481697683592
H            0.10147545366868       -0.64666609940283       -3.37691226423728
O           -4.15684327127857        0.80909500567603        0.61889072902521
H           -5.02702946506204        0.49907490979382        0.88570470865905
H           -3.96457416477645        0.37726375394621       -0.23275884092846
O            0.96836490597379        1.29671348467183        2.78435996782319
H            1.84110688138056        1.21293576538253        3.18016132019632
H            0.43227284070597        1.83509978452302        3.37343917564675
O            1.91908983174563       -2.48990552494294        0.44396484771125
H            2.82625706060984       -2.20248327140536        0.31298364796101
H            1.84538536975058       -3.38791715959207        0.11181201703108
O           -0.71612760709201       -3.04105965634877       -4.32779299008793
H            0.19402289434472       -2.74748430737997       -4.18593535646260
H           -1.25867213135081       -2.29095326528595       -4.04603641550531
O           -1.55187019877855       -2.48150361965048        3.46374888378291
H           -2.25736947439627       -2.05018399924985        3.95366027916277
H           -1.98108077798489       -3.15280357722510        2.89924592130114
O           -5.61180204554532       -1.81214278259343       -2.75490837166688
H           -5.56718338834640       -2.00100477272155       -3.69650151639016
H           -4.84170190227662       -1.25415351742604       -2.54968134556722
*
