34
 energy: -56.717632436569 gnorm: 0.000203543295 xtb: 6.7.1 (edcfbbe)
C            0.57653342257301       -0.35279101602371        0.78172386414615
C           -0.52299641259260        0.16458918635056        1.73683999314050
O           -0.94996668296706       -0.62711245483818        2.61004016579096
O           -0.89942223725489        1.34858302780290        1.60661307370879
C            0.45011423346353        0.20188602254071       -0.63506267526557
N           -0.18262451836640       -0.78264769095130       -1.52697604642604
H            1.51078454149495       -0.02401607684927        1.24020628313063
H            0.56571333683712       -1.44144463487457        0.79148793419275
H           -0.15338575973821        1.11217904510525       -0.58924327839464
H            1.43343292880003        0.45791431259173       -1.02974727355644
H           -1.09738628352284       -1.14160394982529       -1.14504670436890
H            0.41755546601617       -1.63466257606951       -1.63787020093439
H           -0.36525573965772       -0.39672767659556       -2.45413867100557
O           -1.68775562111161       -3.02386054337642        1.74767300748831
H           -1.39056084167584       -2.16151542089287        2.12377811175343
H           -2.28059170387046       -3.40748781496841        2.40039997272248
O           -2.45032569627947       -2.03565854982509       -0.74331702103752
H           -3.20966939233385       -1.43114679664816       -0.62951038957515
H           -2.27936601865991       -2.43957281180600        0.12518303454181
O           -4.38863038066752       -0.12631485360243       -0.61089031249126
H           -4.80306314549382        0.08694857416900       -1.45315187520480
H           -3.90358607122640        0.67811438706115       -0.33819979641940
O           -1.36310598273587       -2.88829765974014       -3.28978056713238
H           -1.92886389109654       -2.77962504590656       -2.51098185207272
H           -0.52616218406048       -3.23496519263662       -2.94963067585541
O           -2.98372649076350        2.13327010449003        0.07093820183935
H           -2.24960083097717        1.88569981294069        0.66605685823823
H           -3.41725596445075        2.88395145598421        0.48737084629536
O            0.53636490416020       -4.25832352032634        0.65526760769145
H            0.37648890555139       -5.20522744397380        0.70288139589033
H           -0.24192989062942       -3.83103662580603        1.05984354845771
O            1.12207814884969       -3.17922825253348       -1.76547021808779
H            0.92493961565172       -3.59361505734365       -0.89931343874657
H            2.05763423673677       -3.31912626355474       -1.93195990248082
