34
 energy: -56.712354545958 gnorm: 0.000323150907 xtb: 6.7.1 (edcfbbe)
C            0.23886697012423       -0.27390583762040        0.69016643563881
C            0.58339626603089        0.89717047237047        1.65572615337102
O            1.01654982787223        0.57605446003930        2.78403107276294
O            0.38728393702934        2.06198699874693        1.24988784052362
C            0.24943985027201        0.16146797405945       -0.76433560325623
N           -0.36871132378726       -0.85088433182538       -1.63506894092316
H            0.94707490527548       -1.07636178066816        0.89336218535064
H           -0.75993012588663       -0.60808206812909        0.98005325459902
H           -0.29566763102626        1.10532095114460       -0.82633597911163
H            1.27810010255658        0.34359497226127       -1.07709229927880
H           -1.33636491200290       -1.06935937316627       -1.30647762722793
H            0.17801466784277       -1.74722663329101       -1.62780929831873
H           -0.41322829883201       -0.52572158042118       -2.62100337922502
O            0.85937953894423       -3.25783178129738       -2.01478840606654
H            0.47762254952220       -3.29457449152206       -2.91163630542509
H            0.40986067756440       -3.96099474430742       -1.51961068688194
O           -0.68452619793185       -2.97947882134051       -4.32589466387506
H           -0.67608010163514       -2.00744404603228       -4.40655638677868
H           -0.63283546190099       -3.33491920051038       -5.21641852358742
O           -0.44849974338639       -0.20388081384553       -4.35361247676616
H            0.37142131655009        0.14719593924461       -4.71269603694361
H           -1.14309247375167        0.44734836662517       -4.55703136979747
O           -2.90484341567171       -1.60903442516727       -0.90076301243995
H           -3.69868707701368       -1.14273335122635       -1.17200441219337
H           -2.88033063233035       -2.44938315047609       -1.41908338166240
O           -2.31695344745087        1.79782957232369       -4.79790270455565
H           -3.26671320819332        1.64697378417243       -4.82192777347116
H           -2.17567225253144        2.68653081688989       -4.45850128355375
O           -2.51384541794958       -3.81127554023170       -2.38994260303690
H           -1.95071294089530       -4.37447778556723       -1.83544246202159
H           -1.93753689574975       -3.52118931865985       -3.12339968824576
O           -0.68859085667468       -5.26471373316201       -0.75434366543370
H           -0.82493871332846       -5.15396052628273        0.19126225351318
H           -0.49546848167523       -6.19454397316639       -0.91010422568953
