37
 energy: -59.865983467451 gnorm: 0.000748618287 xtb: 6.7.1 (edcfbbe)
N            0.64436023442226       -0.32457694946704        1.06283879796221
C            0.66388430281400        0.86804920502084        0.19614002308826
C            0.06346062625719        0.55796916771161       -1.17275689002408
C            1.01016623216641       -0.17812656029212       -2.12811372581832
C            1.17550743689752       -1.70158667029549       -1.94788947825156
O            1.31966791694095       -2.38555430412033       -2.97523049841112
O            1.19616975556620       -2.17768916564797       -0.77832441028102
H            1.38885047465493       -0.29770240992416        1.81036188547606
H           -0.27291682536024       -0.46314229242353        1.48255001619633
H            0.09891505214914        1.67366813751970        0.66432862029535
H            1.69687192270042        1.19296680148255        0.07488231683006
H           -0.21062874139855        1.50368419737540       -1.64224774333266
H           -0.85105608593432       -0.02462144276402       -1.05102440566805
H            2.01763842465548        0.24114330469213       -2.05259479066867
H            0.68369172951383       -0.03901114283530       -3.16067212856285
H            0.85899404333905       -1.15047883726780        0.43919313447977
O            2.69658011600491       -0.61232398616582        2.77613134032996
H            3.06029700292486       -1.33538195787257        2.23233706668795
H            2.38193916150597       -1.03893045194627        3.59243471767741
O            3.25570519212736       -2.70867644844580        1.02882762554782
H            4.05706175118123       -2.90027590410438        0.53553616329939
H            2.53137582146687       -2.68665081094343        0.37966545377890
O           -0.91347223098940        3.56838070090155        1.57047561364082
H           -0.35859337533446        4.07963343059104        2.16880993211023
H           -1.79197619304664        3.53062832640834        1.96154755446809
O           -3.59731806667611       -2.31376981530163       -4.37059068028671
H           -3.33360746659472       -3.00889616103064       -3.76024559402440
H           -2.92102527732506       -2.26748654107714       -5.05349960742920
O           -5.25865473873517       -0.08586547813541       -3.58554256236752
H           -4.59761799561216        0.61397784584836       -3.56598569033764
H           -4.79483916928149       -0.88495018145227       -3.87842249882831
O            1.77455241667040       -2.14312166936860        4.93764227404824
H            2.34169812452911       -2.31523797621165        5.69529994045271
H            1.38876956730978       -2.98398377150739        4.67306751710782
O           -0.70339707314135        3.82259900665218       -1.27799386005223
H           -0.81830366911539        3.76792297482008       -0.31456731500679
H           -0.12866739724455        4.57673282929053       -1.43794911448395
