37
 energy: -59.865156880867 gnorm: 0.000307676790 xtb: 6.7.1 (edcfbbe)
N           -0.73166585701527       -0.88160672153590        1.65419858435343
C            0.11314407594589       -1.28599594811592        0.51163389774507
C            0.27038523166165       -0.15722475760534       -0.49969780728950
C            1.12615992865741       -0.58540236141178       -1.68642093103507
C            1.38374524771740        0.58233382554726       -2.66810910998943
O            1.53926230990708        1.72476070027266       -2.19692736138084
O            1.44005124831347        0.29480444167500       -3.89214253503245
H           -0.28713197880461       -0.12984524572799        2.18402669037790
H           -1.64202620304033       -0.55626668406688        1.32439103055194
H           -0.34800079945746       -2.14838786447741        0.02931270427350
H            1.09037488813055       -1.58566118881580        0.88936285987532
H            0.74671649303733        0.71860332833856       -0.05347325311232
H           -0.70371243747846        0.15554392723912       -0.88218872247656
H            0.66924709844332       -1.40088861519366       -2.24692695044645
H            2.11328211544656       -0.91220723993757       -1.34880711033886
H           -0.86941984590218       -1.74059620057001        2.28329633205021
O            0.41176814428870       -2.05045396739245       -4.79014106807101
H            0.78032666729161       -1.18929316910940       -4.49103615755599
H            0.75096525992028       -2.17598024409524       -5.68134201537717
O           -2.17209336500470       -3.22264250700776        5.45250565479146
H           -1.72914872639039       -3.19239243172178        4.58278158841977
H           -2.76526130771432       -3.97829452995472        5.42349856749571
O           -1.45190809821915       -4.31117213260704        0.51892405801338
H           -1.11715587385972       -5.14954085595176        0.19170466309742
H           -2.21399509978651       -4.08876426990631       -0.03866091583178
O           -0.90054593065920       -3.17824802090961        2.96453624855704
H           -1.19281091676213       -3.70243947092688        2.19427369418510
H            0.06425978340231       -3.31908601714646        3.02488315045381
O           -0.42842889409105       -2.96402553240413        7.61845558477467
H           -0.81383997612460       -2.26981010048900        8.16023850648227
H           -1.02820711312012       -3.06475701796759        6.85353342031143
O            1.85465775708158       -3.25436127449552        2.94336684043583
H            2.34933384038316       -4.02488973056126        2.65166271885206
H            2.29253896399275       -2.91746994418013        3.73083831682294
O           -3.48850797044641       -3.61447761840130       -1.29618362243576
H           -3.25748342607225       -3.51005564406597       -2.22352148474457
H           -4.32343723368532       -3.15751091635796       -1.15483606679379
