37
 energy: -59.866844214438 gnorm: 0.000337269443 xtb: 6.7.1 (edcfbbe)
N           -0.02226838230968        0.17486176792857        2.53508399882300
C           -0.22087642098409       -0.19639582761436        1.12491621060707
C            0.26349321856545        0.91301356565254        0.19893769167915
C           -0.04710221335440        0.60131213057823       -1.26054482589659
C            0.77394067110894       -0.57266836756469       -1.86239311867531
O            1.67299257287724       -1.09249342845781       -1.17025065635779
O            0.46849582327762       -0.90632930556689       -3.03145993290971
H            0.96580420151980        0.42961090203788        2.72322004089791
H           -0.60274151106186        1.01743610116613        2.77964610056027
H           -1.28175027998648       -0.38166040820219        0.95210214952394
H            0.33548296884377       -1.10331060597645        0.88370857230587
H            1.34598840381505        1.00914709895401        0.29313194745777
H           -0.21026823963838        1.85797769460696        0.46752562953861
H           -1.10016917105393        0.35116965990168       -1.40623126919842
H            0.17296472891366        1.46220321554092       -1.89690565317427
H           -0.28337764814850       -0.60364429463627        3.16458358419402
O            2.34952560425574        1.30829707404517        3.45316832770789
H            3.03511218032771        1.83416708639352        3.03651897311303
H            1.88190603393880        1.88994041465321        4.07909090060208
O           -4.95713706725447        0.50664988079204        2.20566610745839
H           -5.42367257310146       -0.32474898663639        2.33185479058784
H           -5.27399834125780        0.89078974616210        1.38313811075080
O           -0.75309228559606       -1.94890613626419        4.23246110406807
H           -1.64923450000841       -2.02922725019807        4.57230483984277
H           -0.39277983657791       -2.83334753081996        4.13431646623261
O           -1.26483820839641        2.48120791208411        3.29026114040431
H           -1.15892638998508        3.08895022059111        2.53829033584657
H           -0.58358990056342        2.72753065793921        3.94226516915556
O            0.74717226201088        2.85973649936282        5.20171590220109
H            0.96899412050379        3.72703958926666        5.55406954937574
H            0.47165984744857        2.31216977242182        5.94432754627196
O           -0.88909519510059        4.14278758462608        1.08664711058547
H           -1.66441630285386        4.46783156722418        0.62085632916488
H           -0.21541416832050        4.82777887989066        1.03875215955159
O           -3.89779395620062        2.23427270468703        4.29993695714557
H           -4.30581554082818        1.64407529389693        3.64999462088436
H           -2.98304250480596        2.35288412152366        3.98408408965802
