37
 energy: -59.872546103894 gnorm: 0.000178329801 xtb: 6.7.1 (edcfbbe)
N            0.06521691302477       -1.43168217319560        0.76522716435217
C            0.88992638342815       -0.23004555532398        0.53457821201682
C            0.39524008952104        0.52237672712535       -0.70141504221276
C            0.94876292315604       -0.01636226548438       -2.02285780065996
C            0.49994817283380       -1.41582614246874       -2.46175322754558
O            1.04802761995092       -1.89595932773224       -3.47629730873741
O           -0.37634602195634       -2.02437768793219       -1.79280413141352
H            0.57195538835893       -2.22489075859285        1.20148396910293
H           -0.76099730630925       -1.25310116408551        1.34443355820945
H            0.84392439752198        0.41695285998305        1.40992617146065
H            1.92584269597011       -0.53168453256647        0.37776618577817
H            0.69654624052169        1.56750360302340       -0.63483394183348
H           -0.69431763919568        0.49560734121510       -0.73734777607183
H            2.04119089153417       -0.03320873197670       -2.01155569903914
H            0.65681264891844        0.65593172563956       -2.83463805785471
H           -0.25893989358380       -1.76143422429775       -0.18108608655549
O           -2.84924753398123        2.97289882588716       -4.86001380116803
H           -3.55423941338317        3.27781618474703       -4.27892510052130
H           -3.22339250572950        2.29239234215823       -5.42806301652106
O           -1.61587738299308       -2.75556348988135        2.65746540041520
H           -0.87911924879229       -3.35162050275989        2.43819297769670
H           -2.41924225174851       -3.21500017490547        2.40000767227582
O           -0.18679111264766        2.62334760501751       -3.89973942889653
H            0.30148639195784        3.38573806501414       -4.22614548476436
H           -1.09600457179130        2.73209383951217       -4.22497475858968
O            1.69430572891352       -4.55006704383569       -3.30876400415081
H            1.48242667139203       -3.59941576248882       -3.42605442294944
H            1.53289386317809       -4.95954538026186       -4.16378346882364
O           -1.55337534527931       -2.13563623990207        5.39427762276319
H           -0.69903445293180       -1.71117361690595        5.51818640757381
H           -1.61819391918608       -2.33018544319526        4.43972287943030
O            0.71664844288797       -3.97354543510873        1.59495738245849
H            1.45530632803721       -4.49784574482530        1.91376838169485
H            0.50100498538508       -4.30372240002748        0.69616606362628
O            0.11945174530109       -4.60648128871011       -0.98225356436519
H            0.77713362449850       -4.85457568814644       -1.65129345983441
H           -0.24821554675833       -3.76813534479740       -1.32380946654624
