34
 energy: -56.691581873854 gnorm: 0.002098461388 xtb: 6.7.1 (edcfbbe)
H            1.37517781371800       -0.55244963409951        0.11247477817742
C            0.30569539001591       -0.42261817116716       -0.05900392495647
H            0.76978665935706        0.66936974005585       -1.77089156504282
H           -0.09100365470735       -1.34641265521650       -0.48165998873452
N            0.10237163082716        0.69710978145417       -1.00189462002736
H           -0.23831537734917       -0.88864730435692        1.98611176554370
C           -0.38397771304534       -0.09249779780554        1.25961738949191
O            0.38429356890651        2.18157076139185        1.12017888530918
C            0.12931732132180        1.22140997071091        1.89813563774490
H            0.24419269529768        1.55407402316261       -0.39148416585852
O            0.24440810873332        1.26037714810533        3.13568377875984
H           -0.86628337258848        0.70224988042694       -1.37439190244402
H           -1.45971766448563        0.02850078955938        1.10842371661950
O            3.44783448491636       -3.46822146375758        2.11766289113678
H            2.82539083221252       -4.04903750242360        2.56753627135356
H            3.73472165674854       -2.81054961288639        2.75809903712887
O           -0.01795260903019       -2.90889576091872        6.30653419735827
H            0.35066471099377       -2.02549720831901        6.39920356761777
H           -0.93335630061418       -2.80075178764742        6.02777587343181
O            2.94089248203002       -2.57566483336823       -0.50151539155478
H            3.78888405780723       -2.54763998158770       -0.95408727981397
H            3.11875929273251       -2.92819447167152        0.38682822270701
O           -3.53466730811134       -0.37713362014309        0.14565673702951
H           -3.24109989501301        0.00975525794344       -0.69577277952183
H           -3.95218403481455       -1.21625489557309       -0.07261487208552
O           -2.45145584897323        0.79982985110427       -2.20563445607279
H           -2.73995620868457        1.70796499264339       -2.34089568818930
H           -2.52176114844643        0.34421308394655       -3.05249536657451
O            0.46849726088089       -3.29452429046826       -1.66701910961641
H            0.28069021887628       -4.18111717427792       -1.34796794374277
H            1.34802240716606       -3.06268336148373       -1.32104416480729
O            0.66389090851109       -0.37256227885641       -6.33896903980888
H            0.75424624660190       -1.25449597847843       -5.96418202627675
H            1.54993138883582       -0.05692649562746       -6.53816146389327
